@<TRIPOS>MOLECULE
UNL
   32    32     1     0     0
SMALL
bcc


@<TRIPOS>ATOM
      1 C1          47.8580    -8.1030    33.2660 ca         1 UNL      -0.049000
      2 C2          45.6020    -8.8830    33.6370 ca         1 UNL      -0.049000
      3 C3          47.5300    -7.7810    31.9490 ca         1 UNL      -0.161000
      4 C4          45.2740    -8.5600    32.3200 ca         1 UNL      -0.161000
      5 C5          46.8940    -8.6550    34.1100 ca         1 UNL      -0.193200
      6 C6          46.2380    -8.0090    31.4760 ca         1 UNL       0.212100
      7 C7          43.7400    -9.2690    28.8050 c3         1 UNL      -0.121100
      8 C8          50.4540    -9.1590    29.1320 c3         1 UNL      -0.121100
      9 C9          44.8340   -10.0660    28.1280 c3         1 UNL       0.164400
     10 C10         49.0960    -9.1280    28.4640 c3         1 UNL       0.164400
     11 N1          47.2280    -8.9840    35.4500 no         1 UNL       0.316200
     12 O1          48.3960    -8.7710    35.8560 o          1 UNL      -0.209000
     13 O2          46.3460    -9.4790    36.1920 o          1 UNL      -0.209000
     14 O3          46.4560    -7.5090    27.6160 o          1 UNL      -0.793300
     15 O4          45.9160    -7.6920    30.1840 os         1 UNL      -0.486500
     16 O5          46.0590    -9.8330    28.8020 os         1 UNL      -0.578200
     17 O6          48.1710    -8.4920    29.3280 os         1 UNL      -0.578200
     18 P1          46.6240    -8.3160    28.8730 p5         1 UNL       1.631500
     19 H1          48.8690    -7.9200    33.6210 ha         1 UNL       0.174000
     20 H2          44.8410    -9.3130    34.2840 ha         1 UNL       0.174000
     21 H3          48.2850    -7.3510    31.2960 ha         1 UNL       0.160000
     22 H4          44.2650    -8.7410    31.9580 ha         1 UNL       0.160000
     23 H5          43.6260    -9.5700    29.8500 hc         1 UNL       0.050033
     24 H6          43.9640    -8.1970    28.7680 hc         1 UNL       0.050033
     25 H7          42.7840    -9.4110    28.2900 hc         1 UNL       0.050033
     26 H8          50.8100    -8.1460    29.3390 hc         1 UNL       0.050033
     27 H9          50.4090    -9.7170    30.0720 hc         1 UNL       0.050033
     28 H10         51.1860    -9.6670    28.4950 hc         1 UNL       0.050033
     29 H11         44.9430    -9.7590    27.0840 h1         1 UNL       0.063200
     30 H12         44.6090   -11.1360    28.1660 h1         1 UNL       0.063200
     31 H13         48.7470   -10.1450    28.2590 h1         1 UNL       0.063200
     32 H14         49.1430    -8.5690    27.5240 h1         1 UNL       0.063200
@<TRIPOS>BOND
     1     1     3 ar  
     2     1     5 ar  
     3     1    19 1   
     4     2     4 ar  
     5     2     5 ar  
     6     2    20 1   
     7     3     6 ar  
     8     3    21 1   
     9     4     6 ar  
    10     4    22 1   
    11     5    11 1   
    12     6    15 1   
    13     7     9 1   
    14     7    23 1   
    15     7    24 1   
    16     7    25 1   
    17     8    10 1   
    18     8    26 1   
    19     8    27 1   
    20     8    28 1   
    21     9    16 1   
    22     9    29 1   
    23     9    30 1   
    24    10    17 1   
    25    10    31 1   
    26    10    32 1   
    27    11    12 1   
    28    11    13 1   
    29    14    18 2   
    30    15    18 1   
    31    16    18 1   
    32    17    18 1   
@<TRIPOS>SUBSTRUCTURE
     1 UNL         1 TEMP              0 ****  ****    0 ROOT
