@<TRIPOS>MOLECULE
UNL
   32    32     1     0     0
SMALL
bcc


@<TRIPOS>ATOM
      1 C1          47.0190    -8.5500    32.2060 ca         1 UNL      -0.050000
      2 C2          49.0340    -7.3650    31.5940 ca         1 UNL      -0.050000
      3 C3          46.7450    -8.7810    30.8580 ca         1 UNL      -0.159500
      4 C4          48.7600    -7.5970    30.2450 ca         1 UNL      -0.159500
      5 C5          48.1630    -7.8420    32.5740 ca         1 UNL      -0.192200
      6 C6          47.6160    -8.3050    29.8780 ca         1 UNL       0.210100
      7 C7          44.4650    -8.6970    27.6680 c3         1 UNL      -0.110100
      8 C8          49.4860   -12.8620    29.2950 c3         1 UNL      -0.110100
      9 C9          44.6090   -10.2030    27.6950 c3         1 UNL       0.164400
     10 C10         48.3920   -12.2790    28.4260 c3         1 UNL       0.164400
     11 N1          48.4410    -7.6050    33.9460 no         1 UNL       0.316200
     12 O1          47.6450    -8.0420    34.8120 o          1 UNL      -0.208500
     13 O2          49.4760    -6.9660    34.2550 o          1 UNL      -0.208500
     14 O3          47.3790   -10.0180    26.3830 o          1 UNL      -0.791300
     15 O4          47.3480    -8.5330    28.5550 os         1 UNL      -0.480500
     16 O5          45.7800   -10.5430    28.4170 os         1 UNL      -0.578700
     17 O6          48.3000   -10.8860    28.6720 os         1 UNL      -0.578700
     18 P1          47.2060    -9.9920    27.8760 p5         1 UNL       1.625500
     19 H1          46.3320    -8.9260    32.9600 ha         1 UNL       0.174000
     20 H2          49.9290    -6.8120    31.8660 ha         1 UNL       0.174000
     21 H3          45.8530    -9.3340    30.5770 ha         1 UNL       0.162000
     22 H4          49.4420    -7.2240    29.4870 ha         1 UNL       0.162000
     23 H5          44.3800    -8.2950    28.6820 hc         1 UNL       0.050867
     24 H6          45.3280    -8.2360    27.1760 hc         1 UNL       0.050867
     25 H7          43.5790    -8.4040    27.0960 hc         1 UNL       0.050867
     26 H8          50.4520   -12.4030    29.0660 hc         1 UNL       0.050867
     27 H9          49.2620   -12.7050    30.3550 hc         1 UNL       0.050867
     28 H10         49.5640   -13.9440    29.1430 hc         1 UNL       0.050867
     29 H11         44.6940   -10.5990    26.6790 h1         1 UNL       0.055200
     30 H12         43.7460   -10.6630    28.1880 h1         1 UNL       0.055200
     31 H13         47.4290   -12.7430    28.6590 h1         1 UNL       0.055200
     32 H14         48.6180   -12.4360    27.3670 h1         1 UNL       0.055200
@<TRIPOS>BOND
     1     1     3 ar  
     2     1     5 ar  
     3     1    19 1   
     4     2     4 ar  
     5     2     5 ar  
     6     2    20 1   
     7     3     6 ar  
     8     3    21 1   
     9     4     6 ar  
    10     4    22 1   
    11     5    11 1   
    12     6    15 1   
    13     7     9 1   
    14     7    23 1   
    15     7    24 1   
    16     7    25 1   
    17     8    10 1   
    18     8    26 1   
    19     8    27 1   
    20     8    28 1   
    21     9    16 1   
    22     9    29 1   
    23     9    30 1   
    24    10    17 1   
    25    10    31 1   
    26    10    32 1   
    27    11    12 1   
    28    11    13 1   
    29    14    18 2   
    30    15    18 1   
    31    16    18 1   
    32    17    18 1   
@<TRIPOS>SUBSTRUCTURE
     1 UNL         1 TEMP              0 ****  ****    0 ROOT
