@<TRIPOS>MOLECULE
HD3
   17    17     1     0     0
SMALL
RESP Charge
 
 
@<TRIPOS>ATOM
      1 N          49.8600    1.1920   29.9380 N         1 HD3     -0.415700
      2 CA         50.6520    0.5050   30.9740 CX        1 HD3      0.018800
      3 C          51.8540    1.3520   31.3870 C         1 HD3      0.597300
      4 O          52.9030    0.8440   31.8150 O         1 HD3     -0.567900
      5 CB         51.1170   -0.8860   30.4910 CT        1 HD3      0.134361
      6 CG         49.9930   -1.7730   30.0230 CC        1 HD3     -0.010492
      7 ND1        48.6790   -1.6200   30.5030 NA        1 HD3     -0.197614
      8 CD2        49.9920   -2.8200   29.1390 CV        1 HD3     -0.081968
      9 CE1        47.9290   -2.5580   29.9040 CR        1 HD3      0.073865
     10 NE2        48.6750   -3.2900   29.0710 Y6        1 HD3     -0.374389
     11 H          48.8870    1.3580   30.1600 H         1 HD3      0.270734
     12 HA         50.0560    0.3760   31.8710 H1        1 HD3      0.080798
     13 HB2        51.8350   -0.7730   29.6770 HC        1 HD3      0.096651
     14 HB3        51.6210   -1.3930   31.3120 HC        1 HD3      0.096651
     15 HD1        48.3750   -0.9730   31.2180 H         1 HD3      0.323460
     16 HD2        50.8530   -3.2100   28.6160 H4        1 HD3      0.114233
     17 HE1        46.8940   -2.7530   30.1470 H5        1 HD3      0.132993
@<TRIPOS>BOND
     1    1    2 1
     2    1   11 1
     3    2    3 1
     4    2    5 1
     5    2   12 1
     6    3    4 1
     7    5    6 1
     8    5   13 1
     9    5   14 1
    10    6    7 1
    11    6    8 1
    12    7    9 1
    13    7   15 1
    14    8   10 1
    15    8   16 1
    16    9   10 1
    17    9   17 1
@<TRIPOS>SUBSTRUCTURE
     1 HD3         1 TEMP              0 ****  ****    0 ROOT
