@<TRIPOS>MOLECULE
UNL
   32    32     1     0     0
SMALL
bcc


@<TRIPOS>ATOM
      1 C1          46.7570    -9.0980    33.5450 ca         1 UNL      -0.049500
      2 C2          48.7280    -7.8240    34.1200 ca         1 UNL      -0.049500
      3 C3          46.9350    -8.7660    32.2020 ca         1 UNL      -0.159500
      4 C4          48.9050    -7.4910    32.7770 ca         1 UNL      -0.159500
      5 C5          47.6540    -8.6270    34.5040 ca         1 UNL      -0.192200
      6 C6          48.0080    -7.9630    31.8180 ca         1 UNL       0.211100
      7 C7          43.9210    -8.9790    28.4760 c3         1 UNL      -0.120600
      8 C8          49.2800   -12.0420    30.2270 c3         1 UNL      -0.120600
      9 C9          45.4010    -9.2620    28.3240 c3         1 UNL       0.165400
     10 C10         49.3050   -10.6400    29.6580 c3         1 UNL       0.165400
     11 N1          47.4740    -8.9640    35.8720 no         1 UNL       0.316200
     12 O1          46.5010    -9.6880    36.1960 o          1 UNL      -0.209000
     13 O2          48.2910    -8.5300    36.7180 o          1 UNL      -0.209000
     14 O3          48.4270    -8.2450    27.9520 o          1 UNL      -0.793300
     15 O4          48.1820    -7.6370    30.5000 os         1 UNL      -0.482500
     16 O5          46.1230    -8.4410    29.2250 os         1 UNL      -0.581700
     17 O6          48.0140   -10.0680    29.7810 os         1 UNL      -0.581700
     18 P1          47.7390    -8.5600    29.2510 p5         1 UNL       1.632500
     19 H1          45.9160    -9.7250    33.8310 ha         1 UNL       0.174000
     20 H2          49.4340    -7.4490    34.8570 ha         1 UNL       0.174000
     21 H3          46.2330    -9.1360    31.4590 ha         1 UNL       0.161000
     22 H4          49.7430    -6.8650    32.4840 ha         1 UNL       0.161000
     23 H5          43.5850    -9.1970    29.4940 hc         1 UNL       0.050200
     24 H6          43.7040    -7.9300    28.2490 hc         1 UNL       0.050200
     25 H7          43.3380    -9.5850    27.7740 hc         1 UNL       0.050200
     26 H8          49.0040   -12.0290    31.2850 hc         1 UNL       0.050200
     27 H9          48.5640   -12.6670    29.6830 hc         1 UNL       0.050200
     28 H10         50.2610   -12.5180    30.1240 hc         1 UNL       0.050200
     29 H11         45.7300    -9.0420    27.3040 h1         1 UNL       0.061950
     30 H12         45.6160   -10.3100    28.5520 h1         1 UNL       0.061950
     31 H13         49.5810   -10.6600    28.5990 h1         1 UNL       0.061950
     32 H14         50.0200   -10.0170    30.2030 h1         1 UNL       0.061950
@<TRIPOS>BOND
     1     1     3 ar  
     2     1     5 ar  
     3     1    19 1   
     4     2     4 ar  
     5     2     5 ar  
     6     2    20 1   
     7     3     6 ar  
     8     3    21 1   
     9     4     6 ar  
    10     4    22 1   
    11     5    11 1   
    12     6    15 1   
    13     7     9 1   
    14     7    23 1   
    15     7    24 1   
    16     7    25 1   
    17     8    10 1   
    18     8    26 1   
    19     8    27 1   
    20     8    28 1   
    21     9    16 1   
    22     9    29 1   
    23     9    30 1   
    24    10    17 1   
    25    10    31 1   
    26    10    32 1   
    27    11    12 1   
    28    11    13 1   
    29    14    18 2   
    30    15    18 1   
    31    16    18 1   
    32    17    18 1   
@<TRIPOS>SUBSTRUCTURE
     1 UNL         1 TEMP              0 ****  ****    0 ROOT
