@<TRIPOS>MOLECULE
UNL
   32    32     1     0     0
SMALL
bcc


@<TRIPOS>ATOM
      1 C1          45.8620    -8.9800    32.8390 ca         1 UNL      -0.049500
      2 C2          48.0350    -7.9310    32.9690 ca         1 UNL      -0.049500
      3 C3          46.0140    -9.1230    31.4600 ca         1 UNL      -0.159500
      4 C4          48.1860    -8.0740    31.5900 ca         1 UNL      -0.159500
      5 C5          46.8720    -8.3830    33.5940 ca         1 UNL      -0.192200
      6 C6          47.1760    -8.6710    30.8350 ca         1 UNL       0.211100
      7 C7          44.8630    -8.7030    27.7350 c3         1 UNL      -0.120600
      8 C8          47.3340   -13.2890    28.7350 c3         1 UNL      -0.120600
      9 C9          44.9000   -10.2160    27.6980 c3         1 UNL       0.165400
     10 C10         48.5100   -12.4970    29.2670 c3         1 UNL       0.165400
     11 N1          46.7180    -8.2370    34.9980 no         1 UNL       0.316200
     12 O1          45.6650    -8.6510    35.5400 o          1 UNL      -0.209000
     13 O2          47.6390    -7.6970    35.6570 o          1 UNL      -0.209000
     14 O3          47.9490   -10.1870    27.3280 o          1 UNL      -0.793300
     15 O4          47.3240    -8.8110    29.4820 os         1 UNL      -0.482500
     16 O5          45.7630   -10.6810    28.7210 os         1 UNL      -0.581700
     17 O6          48.0490   -11.2350    29.7210 os         1 UNL      -0.581700
     18 P1          47.3160   -10.2200    28.6910 p5         1 UNL       1.632500
     19 H1          44.9520    -9.3370    33.3140 ha         1 UNL       0.174000
     20 H2          48.8300    -7.4630    33.5450 ha         1 UNL       0.174000
     21 H3          45.2230    -9.5890    30.8780 ha         1 UNL       0.161000
     22 H4          49.0930    -7.7190    31.1090 ha         1 UNL       0.161000
     23 H5          44.4870    -8.3450    28.6970 hc         1 UNL       0.050200
     24 H6          45.8630    -8.2880    27.5690 hc         1 UNL       0.050200
     25 H7          44.2210    -8.3130    26.9380 hc         1 UNL       0.050200
     26 H8          46.5870   -13.4510    29.5170 hc         1 UNL       0.050200
     27 H9          46.8620   -12.7640    27.8980 hc         1 UNL       0.050200
     28 H10         47.6640   -14.2610    28.3550 hc         1 UNL       0.050200
     29 H11         45.2770   -10.5670    26.7330 h1         1 UNL       0.061950
     30 H12         43.9010   -10.6290    27.8640 h1         1 UNL       0.061950
     31 H13         49.2530   -12.3380    28.4800 h1         1 UNL       0.061950
     32 H14         48.9800   -13.0220    30.1030 h1         1 UNL       0.061950
@<TRIPOS>BOND
     1     1     3 ar  
     2     1     5 ar  
     3     1    19 1   
     4     2     4 ar  
     5     2     5 ar  
     6     2    20 1   
     7     3     6 ar  
     8     3    21 1   
     9     4     6 ar  
    10     4    22 1   
    11     5    11 1   
    12     6    15 1   
    13     7     9 1   
    14     7    23 1   
    15     7    24 1   
    16     7    25 1   
    17     8    10 1   
    18     8    26 1   
    19     8    27 1   
    20     8    28 1   
    21     9    16 1   
    22     9    29 1   
    23     9    30 1   
    24    10    17 1   
    25    10    31 1   
    26    10    32 1   
    27    11    12 1   
    28    11    13 1   
    29    14    18 2   
    30    15    18 1   
    31    16    18 1   
    32    17    18 1   
@<TRIPOS>SUBSTRUCTURE
     1 UNL         1 TEMP              0 ****  ****    0 ROOT
