@<TRIPOS>MOLECULE
HE1
   17    17     1     0     0
SMALL
RESP Charge
 
 
@<TRIPOS>ATOM
      1 N          49.4110   -1.1030   24.4030 N         1 HE1     -0.415700
      2 CA         50.0160   -1.9700   25.4090 CX        1 HE1     -0.058100
      3 C          51.5150   -1.6820   25.1490 C         1 HE1      0.597300
      4 O          51.9530   -1.5850   23.9940 O         1 HE1     -0.567900
      5 CB         49.7010   -3.4620   25.1750 CT        1 HE1      0.265165
      6 CG         50.5000   -4.4000   26.0550 CC        1 HE1      0.115805
      7 ND1        49.9150   -5.2620   26.9820 Y5        1 HE1     -0.356036
      8 CD2        51.8510   -4.6320   26.1160 CW        1 HE1     -0.038770
      9 CE1        50.8660   -5.9730   27.5930 CR        1 HE1      0.019095
     10 NE2        52.0430   -5.6130   27.0950 NA        1 HE1     -0.152069
     11 H          49.5000   -1.4040   23.4420 H         1 HE1      0.378568
     12 HA         49.7350   -1.6700   26.4200 H1        1 HE1      0.113004
     13 HB2        48.6380   -3.6310   25.3450 HC        1 HE1     -0.075439
     14 HB3        49.9230   -3.6930   24.1450 HC        1 HE1     -0.075439
     15 HD2        52.6180   -4.1460   25.5400 H4        1 HE1      0.177389
     16 HE1        50.7040   -6.7140   28.3640 H5        1 HE1      0.174380
     17 HE2        52.9380   -5.9820   27.3860 H         1 HE1      0.359824
@<TRIPOS>BOND
     1    1    2 1
     2    1   11 1
     3    2    3 1
     4    2    5 1
     5    2   12 1
     6    3    4 1
     7    5    6 1
     8    5   13 1
     9    5   14 1
    10    6    7 1
    11    6    8 1
    12    7    9 1
    13    8   10 1
    14    8   15 1
    15    9   10 1
    16    9   16 1
    17   10   17 1
@<TRIPOS>SUBSTRUCTURE
     1 HE1         1 TEMP              0 ****  ****    0 ROOT
