@<TRIPOS>MOLECULE
ebp-a.pdb
35 35 1 0 0
SMALL
NO_CHARGES


@<TRIPOS>ATOM
      1 C1         47.5240   -7.8330   32.0140 C.ar      1 EBP    0.0000
      2 C2         46.1670   -7.4270   32.1180 C.ar      1 EBP    0.0000
      3 C3         45.4810   -7.5910   33.3660 C.ar      1 EBP    0.0000
      4 C4         46.1770   -8.1180   34.4960 C.ar      1 EBP    0.0000
      5 C5         47.4760   -8.4900   34.3640 C.ar      1 EBP    0.0000
      6 C6         48.1680   -8.3290   33.1210 C.ar      1 EBP    0.0000
      7 C7         48.2940   -7.6550   30.6990 C.3       1 EBP    0.0000
      8 C8         45.4480   -8.2250   35.8310 C.3       1 EBP    0.0000
      9 C9         49.7760  -10.8010   29.1510 C.3       1 EBP    0.0000
     10 C10        49.4790  -12.2100   29.3180 C.3       1 EBP    0.0000
     11 C11        45.7040   -8.5600   28.4330 C.3       1 EBP    0.0000
     12 C12        44.5820   -9.5060   28.3840 C.3       1 EBP    0.0000
     13 P          48.1600   -8.6290   29.4210 P.3       1 EBP    0.0000
     14 O1         48.7950  -10.0300   29.8930 O.3       1 EBP    0.0000
     15 O2         46.6280   -9.0180   29.4600 O.3       1 EBP    0.0000
     16 O3         48.6630   -7.9930   28.1960 O.co2     1 EBP    0.0000
     17 H2         45.6579   -6.9997   31.2668 H         1 EBP    0.0000
     18 H3         44.4400   -7.3165   33.4514 H         1 EBP    0.0000
     19 H5         47.9958   -8.9142   35.2103 H         1 EBP    0.0000
     20 H6         49.2109   -8.6014   33.0529 H         1 EBP    0.0000
     21 H72        48.0305   -6.6608   30.3380 H         1 EBP    0.0000
     22 H73        49.3522   -7.6232   30.9582 H         1 EBP    0.0000
     23 H92        49.7266  -10.5381   28.0943 H         1 EBP    0.0000
     24 H93        50.7741  -10.5894   29.5346 H         1 EBP    0.0000
     25 H112       45.3382   -7.5637   28.6813 H         1 EBP    0.0000
     26 H113       46.2088   -8.5369   27.4672 H         1 EBP    0.0000
     27 H81        46.1199   -8.6443   36.5799 H         1 EBP    0.0000
     28 H82        44.5790   -8.8734   35.7192 H         1 EBP    0.0000
     29 H83        45.1235   -7.2340   36.1482 H         1 EBP    0.0000
     30 H101       50.2079  -12.8034   28.7660 H         1 EBP    0.0000
     31 H102       49.5270  -12.4683   30.3759 H         1 EBP    0.0000
     32 H103       48.4787  -12.4180   28.9382 H         1 EBP    0.0000
     33 H121       43.8711   -9.1881   27.6213 H         1 EBP    0.0000
     34 H122       44.9559  -10.5004   28.1399 H         1 EBP    0.0000
     35 H123       44.0863   -9.5323   29.3544 H         1 EBP    0.0000
@<TRIPOS>BOND
     1    1    2 ar
     2    1    6 ar
     3    1    7 1
     4    2    3 ar
     5    3    4 ar
     6    4    5 ar
     7    4    8 1
     8    5    6 ar
     9    7   13 1
    10    9   10 1
    11    9   14 1
    12   11   12 1
    13   11   15 1
    14   13   14 1
    15   13   15 1
    16   13   16 1
    17   17    2 1
    18   18    3 1
    19   19    5 1
    20   20    6 1
    21   21    7 1
    22   22    7 1
    23   23    9 1
    24   24    9 1
    25   25   11 1
    26   26   11 1
    27   27    8 1
    28   28    8 1
    29   29    8 1
    30   30   10 1
    31   31   10 1
    32   32   10 1
    33   33   12 1
    34   34   12 1
    35   35   12 1
@<TRIPOS>SUBSTRUCTURE
     1 EBP     1 RESIDUE           4 A     EBP     0 ROOT
