@<TRIPOS>MOLECULE
UNL
   32    32     1     0     0
SMALL
bcc


@<TRIPOS>ATOM
      1 C1          45.6000    -7.6040    33.2390 ca         1 UNL      -0.051000
      2 C2          47.6540    -8.5340    34.1630 ca         1 UNL      -0.051000
      3 C3          46.2450    -7.4060    32.0210 ca         1 UNL      -0.156500
      4 C4          48.2920    -8.3330    32.9370 ca         1 UNL      -0.156500
      5 C5          46.3120    -8.1660    34.3010 ca         1 UNL      -0.191200
      6 C6          47.5810    -7.7750    31.8750 ca         1 UNL       0.208100
      7 C7          44.5170    -9.4330    28.3460 c3         1 UNL      -0.119100
      8 C8          49.4530   -12.1570    29.3950 c3         1 UNL      -0.119100
      9 C9          45.7470    -8.5510    28.4130 c3         1 UNL       0.165400
     10 C10         49.6780   -10.6950    29.0740 c3         1 UNL       0.165400
     11 N1          45.6410    -8.3630    35.5760 no         1 UNL       0.316200
     12 O1          44.4140    -8.5240    35.5600 o          1 UNL      -0.209000
     13 O2          46.3390    -8.3560    36.5990 o          1 UNL      -0.209000
     14 O3          48.7220    -8.0010    28.1710 o          1 UNL      -0.794300
     15 O4          48.2070    -7.5440    30.6850 os         1 UNL      -0.476500
     16 O5          46.6430    -9.1120    29.3600 os         1 UNL      -0.585200
     17 O6          48.9610    -9.8830    29.9960 os         1 UNL      -0.585200
     18 P1          48.1700    -8.5810    29.4430 p5         1 UNL       1.633500
     19 H1          44.5600    -7.3080    33.3350 ha         1 UNL       0.174000
     20 H2          48.2180    -8.9690    34.9820 ha         1 UNL       0.174000
     21 H3          45.7040    -6.9570    31.1920 ha         1 UNL       0.162000
     22 H4          49.3370    -8.6050    32.8210 ha         1 UNL       0.162000
     23 H5          44.7990   -10.4610    28.0910 hc         1 UNL       0.049033
     24 H6          44.0150    -9.4740    29.3180 hc         1 UNL       0.049033
     25 H7          43.8080    -9.0650    27.5990 hc         1 UNL       0.049033
     26 H8          49.7030   -12.3760    30.4370 hc         1 UNL       0.049033
     27 H9          48.4000   -12.4230    29.2530 hc         1 UNL       0.049033
     28 H10         50.0610   -12.7920    28.7440 hc         1 UNL       0.049033
     29 H11         45.4800    -7.5370    28.7200 h1         1 UNL       0.061700
     30 H12         46.2250    -8.5120    27.4300 h1         1 UNL       0.061700
     31 H13         49.3570   -10.4940    28.0470 h1         1 UNL       0.061700
     32 H14         50.7390   -10.4460    29.1640 h1         1 UNL       0.061700
@<TRIPOS>BOND
     1     1     3 ar  
     2     1     5 ar  
     3     1    19 1   
     4     2     4 ar  
     5     2     5 ar  
     6     2    20 1   
     7     3     6 ar  
     8     3    21 1   
     9     4     6 ar  
    10     4    22 1   
    11     5    11 1   
    12     6    15 1   
    13     7     9 1   
    14     7    23 1   
    15     7    24 1   
    16     7    25 1   
    17     8    10 1   
    18     8    26 1   
    19     8    27 1   
    20     8    28 1   
    21     9    16 1   
    22     9    29 1   
    23     9    30 1   
    24    10    17 1   
    25    10    31 1   
    26    10    32 1   
    27    11    12 1   
    28    11    13 1   
    29    14    18 2   
    30    15    18 1   
    31    16    18 1   
    32    17    18 1   
@<TRIPOS>SUBSTRUCTURE
     1 UNL         1 TEMP              0 ****  ****    0 ROOT
