@<TRIPOS>MOLECULE
UNL
   32    32     1     0     0
SMALL
bcc


@<TRIPOS>ATOM
      1 C1          44.8360   -10.7450    32.9900 ca         1 UNL      -0.049500
      2 C2          44.5470    -8.5470    33.9510 ca         1 UNL      -0.049500
      3 C3          45.8190   -10.2440    32.1380 ca         1 UNL      -0.159500
      4 C4          45.5310    -8.0460    33.0980 ca         1 UNL      -0.159500
      5 C5          44.2000    -9.8970    33.8970 ca         1 UNL      -0.192200
      6 C6          46.1670    -8.8940    32.1920 ca         1 UNL       0.211100
      7 C7          43.9130    -9.2360    28.2370 c3         1 UNL      -0.120600
      8 C8          49.3750   -12.4010    29.6710 c3         1 UNL      -0.120600
      9 C9          45.1890    -8.5430    28.6660 c3         1 UNL       0.165400
     10 C10         48.6360   -11.2040    29.1130 c3         1 UNL       0.165400
     11 N1          43.1980   -10.4070    34.7640 no         1 UNL       0.316200
     12 O1          42.9000   -11.6240    34.7000 o          1 UNL      -0.209000
     13 O2          42.6380    -9.6260    35.5720 o          1 UNL      -0.209000
     14 O3          48.2000    -8.0250    28.9810 o          1 UNL      -0.793300
     15 O4          47.1320    -8.4020    31.3560 os         1 UNL      -0.482500
     16 O5          46.0240    -9.4800    29.3240 os         1 UNL      -0.581700
     17 O6          48.2710   -10.3470    30.1810 os         1 UNL      -0.581700
     18 P1          47.4610    -8.9750    29.8810 p5         1 UNL       1.632500
     19 H1          44.5740   -11.7990    32.9380 ha         1 UNL       0.174000
     20 H2          44.0590    -7.8750    34.6520 ha         1 UNL       0.174000
     21 H3          46.3110   -10.9100    31.4340 ha         1 UNL       0.161000
     22 H4          45.7970    -6.9930    33.1450 ha         1 UNL       0.161000
     23 H5          44.1280   -10.0580    27.5480 hc         1 UNL       0.050200
     24 H6          43.3800    -9.6340    29.1070 hc         1 UNL       0.050200
     25 H7          43.2370    -8.5290    27.7450 hc         1 UNL       0.050200
     26 H8          50.2840   -12.0890    30.1940 hc         1 UNL       0.050200
     27 H9          48.7390   -12.9570    30.3670 hc         1 UNL       0.050200
     28 H10         49.6500   -13.0930    28.8680 hc         1 UNL       0.050200
     29 H11         44.9680    -7.7230    29.3550 h1         1 UNL       0.061950
     30 H12         45.7220    -8.1470    27.7960 h1         1 UNL       0.061950
     31 H13         47.7290   -11.5220    28.5910 h1         1 UNL       0.061950
     32 H14         49.2730   -10.6490    28.4180 h1         1 UNL       0.061950
@<TRIPOS>BOND
     1     1     3 ar  
     2     1     5 ar  
     3     1    19 1   
     4     2     4 ar  
     5     2     5 ar  
     6     2    20 1   
     7     3     6 ar  
     8     3    21 1   
     9     4     6 ar  
    10     4    22 1   
    11     5    11 1   
    12     6    15 1   
    13     7     9 1   
    14     7    23 1   
    15     7    24 1   
    16     7    25 1   
    17     8    10 1   
    18     8    26 1   
    19     8    27 1   
    20     8    28 1   
    21     9    16 1   
    22     9    29 1   
    23     9    30 1   
    24    10    17 1   
    25    10    31 1   
    26    10    32 1   
    27    11    12 1   
    28    11    13 1   
    29    14    18 2   
    30    15    18 1   
    31    16    18 1   
    32    17    18 1   
@<TRIPOS>SUBSTRUCTURE
     1 UNL         1 TEMP              0 ****  ****    0 ROOT
