@<TRIPOS>MOLECULE
UNL
   32    32     1     0     0
SMALL
bcc


@<TRIPOS>ATOM
      1 C1          50.7800    -8.4140    29.6660 ca         1 UNL      -0.051500
      2 C2          50.7270   -10.8270    29.5610 ca         1 UNL      -0.051500
      3 C3          49.4920    -8.4090    30.2020 ca         1 UNL      -0.161000
      4 C4          49.4390   -10.8220    30.0970 ca         1 UNL      -0.161000
      5 C5          51.3970    -9.6230    29.3450 ca         1 UNL      -0.192200
      6 C6          48.8220    -9.6130    30.4170 ca         1 UNL       0.196100
      7 C7          45.9250    -8.5990    33.2750 c3         1 UNL      -0.120600
      8 C8          43.8340    -9.0120    28.4180 c3         1 UNL      -0.120600
      9 C9          44.7260    -8.5950    32.3510 c3         1 UNL       0.165900
     10 C10         45.2340    -9.1800    27.8690 c3         1 UNL       0.165900
     11 N1          52.7080    -9.6280    28.7990 no         1 UNL       0.315200
     12 O1          53.2940    -8.5340    28.6130 o          1 UNL      -0.208000
     13 O2          53.2450   -10.7260    28.5180 o          1 UNL      -0.208000
     14 O3          46.4110    -7.4050    30.0770 o          1 UNL      -0.811300
     15 O4          47.5580    -9.6090    30.9430 os         1 UNL      -0.484500
     16 O5          45.0310    -9.3560    31.1960 os         1 UNL      -0.567200
     17 O6          46.0690    -9.7070    28.8860 os         1 UNL      -0.567200
     18 P1          46.2770    -8.8890    30.2710 p5         1 UNL       1.628500
     19 H1          51.2910    -7.4680    29.5030 ha         1 UNL       0.175500
     20 H2          51.1960   -11.7760    29.3150 ha         1 UNL       0.175500
     21 H3          49.0160    -7.4640    30.4500 ha         1 UNL       0.168000
     22 H4          48.9220   -11.7630    30.2620 ha         1 UNL       0.168000
     23 H5          46.1770    -9.6170    33.5840 hc         1 UNL       0.051533
     24 H6          46.7950    -8.1540    32.7800 hc         1 UNL       0.051533
     25 H7          45.7260    -7.9970    34.1680 hc         1 UNL       0.051533
     26 H8          43.4240    -9.9730    28.7420 hc         1 UNL       0.051533
     27 H9          43.8320    -8.3220    29.2680 hc         1 UNL       0.051533
     28 H10         43.1710    -8.5830    27.6590 hc         1 UNL       0.051533
     29 H11         44.4800    -7.5740    32.0460 h1         1 UNL       0.059700
     30 H12         43.8580    -9.0400    32.8470 h1         1 UNL       0.059700
     31 H13         45.6380    -8.2150    27.5470 h1         1 UNL       0.059700
     32 H14         45.2340    -9.8700    27.0200 h1         1 UNL       0.059700
@<TRIPOS>BOND
     1     1     3 ar  
     2     1     5 ar  
     3     1    19 1   
     4     2     4 ar  
     5     2     5 ar  
     6     2    20 1   
     7     3     6 ar  
     8     3    21 1   
     9     4     6 ar  
    10     4    22 1   
    11     5    11 1   
    12     6    15 1   
    13     7     9 1   
    14     7    23 1   
    15     7    24 1   
    16     7    25 1   
    17     8    10 1   
    18     8    26 1   
    19     8    27 1   
    20     8    28 1   
    21     9    16 1   
    22     9    29 1   
    23     9    30 1   
    24    10    17 1   
    25    10    31 1   
    26    10    32 1   
    27    11    12 1   
    28    11    13 1   
    29    14    18 2   
    30    15    18 1   
    31    16    18 1   
    32    17    18 1   
@<TRIPOS>SUBSTRUCTURE
     1 UNL         1 TEMP              0 ****  ****    0 ROOT
