@<TRIPOS>MOLECULE
HD1
   17    17     1     0     0
SMALL
RESP Charge
 
 
@<TRIPOS>ATOM
      1 N          40.9080    1.5130   30.2080 N         1 HD1     -0.415700
      2 CA         41.6310    0.2860   29.8380 CX        1 HD1      0.018800
      3 C          41.1920   -0.8420   30.7550 C         1 HD1      0.597300
      4 O          41.7040   -0.9910   31.8650 O         1 HD1     -0.567900
      5 CB         43.1890    0.4270   29.8100 CT        1 HD1     -0.200800
      6 CG         43.9090   -0.8560   29.3290 CC        1 HD1      0.023644
      7 ND1        44.8880   -0.7890   28.3270 NA        1 HD1     -0.164025
      8 CD2        43.7830   -2.1950   29.6650 CV        1 HD1      0.031777
      9 CE1        45.3170   -2.0540   28.1090 CR        1 HD1     -0.090514
     10 NE2        44.6710   -2.9460   28.8730 Y1        1 HD1     -0.135535
     11 H          40.6510    1.6440   31.1750 H         1 HD1      0.321201
     12 HA         41.3270    0.0080   28.8280 H1        1 HD1      0.088686
     13 HB2        43.4520    1.2500   29.1440 HC        1 HD1      0.125894
     14 HB3        43.5390    0.6790   30.8070 HC        1 HD1      0.125894
     15 HD1        45.2550    0.0540   27.9130 H         1 HD1      0.373056
     16 HD2        43.0860   -2.6020   30.3790 H4        1 HD1     -0.122933
     17 HE1        46.0960   -2.3130   27.4080 H5        1 HD1      0.148651
@<TRIPOS>BOND
     1    1    2 1
     2    1   11 1
     3    2    3 1
     4    2    5 1
     5    2   12 1
     6    3    4 1
     7    5    6 1
     8    5   13 1
     9    5   14 1
    10    6    7 1
    11    6    8 1
    12    7    9 1
    13    7   15 1
    14    8   10 1
    15    8   16 1
    16    9   10 1
    17    9   17 1
@<TRIPOS>SUBSTRUCTURE
     1 HD1         1 TEMP              0 ****  ****    0 ROOT
