@<TRIPOS>MOLECULE
WAT
    3     2     1     0     0
SMALL
bcc


@<TRIPOS>ATOM
      1 O           46.5300    -5.4640    29.3120 O        335 WAT      -0.785000
      2 H1          46.4430    -5.2260    30.2790 H1       335 WAT       0.392000
      3 H2          47.4580    -5.3130    28.9710 H2       335 WAT       0.392000
@<TRIPOS>BOND
     1     1     2 1   
     2     1     3 1   
     4     4     5 4
     4     4     6 4
@<TRIPOS>SUBSTRUCTURE
     1 WAT         1 TEMP              0 ****  ****    0 ROOT
