@<TRIPOS>MOLECULE
WAT1
    3     2     1     0     0
SMALL
bcc


@<TRIPOS>ATOM
      1 O           48.1430    -7.0040    28.0170 O        336 WAT1     -0.785000
      2 H1          49.0620    -6.6760    27.8000 H1       336 WAT1      0.392000
      3 H2          48.0890    -7.3860    28.9400 H2       336 WAT1      0.392000
@<TRIPOS>BOND
     1     1     2 1   
     2     1     3 1   
@<TRIPOS>SUBSTRUCTURE
     1 WAT1        1 TEMP              0 ****  ****    0 ROOT
