@<TRIPOS>MOLECULE
UNL
   32    32     1     0     0
SMALL
bcc


@<TRIPOS>ATOM
      1 C1          45.6620    -9.0550    33.1630 ca         1 UNL      -0.049500
      2 C2          47.7330    -8.3870    34.2140 ca         1 UNL      -0.049500
      3 C3          46.2170    -8.8010    31.9090 ca         1 UNL      -0.159500
      4 C4          48.2870    -8.1330    32.9600 ca         1 UNL      -0.159500
      5 C5          46.4200    -8.8480    34.3160 ca         1 UNL      -0.192200
      6 C6          47.5300    -8.3400    31.8070 ca         1 UNL       0.211100
      7 C7          44.7080    -8.8170    27.7720 c3         1 UNL      -0.120600
      8 C8          49.8240   -11.6570    28.4840 c3         1 UNL      -0.120600
      9 C9          46.0910    -8.3630    28.1880 c3         1 UNL       0.165400
     10 C10         48.7170   -11.7770    29.5100 c3         1 UNL       0.165400
     11 N1          45.8560    -9.1060    35.5930 no         1 UNL       0.316200
     12 O1          44.6730    -9.5200    35.6630 o          1 UNL      -0.209000
     13 O2          46.5550    -8.9130    36.6170 o          1 UNL      -0.209000
     14 O3          49.2660    -8.8330    28.3520 o          1 UNL      -0.793300
     15 O4          48.0740    -8.0910    30.5770 os         1 UNL      -0.482500
     16 O5          46.7450    -9.4280    28.8560 os         1 UNL      -0.581700
     17 O6          48.6010   -10.5490    30.2090 os         1 UNL      -0.581700
     18 P1          48.2510    -9.1860    29.4030 p5         1 UNL       1.632500
     19 H1          44.6380    -9.4150    33.2290 ha         1 UNL       0.174000
     20 H2          48.3340    -8.2200    35.1050 ha         1 UNL       0.174000
     21 H3          45.6220    -8.9650    31.0150 ha         1 UNL       0.161000
     22 H4          49.3100    -7.7730    32.8870 ha         1 UNL       0.161000
     23 H5          44.7660    -9.6720    27.0930 hc         1 UNL       0.050200
     24 H6          44.1150    -9.1020    28.6480 hc         1 UNL       0.050200
     25 H7          44.1690    -8.0050    27.2730 hc         1 UNL       0.050200
     26 H8          49.6030   -10.8650    27.7630 hc         1 UNL       0.050200
     27 H9          50.7790   -11.4360    28.9710 hc         1 UNL       0.050200
     28 H10         49.9520   -12.6010    27.9440 hc         1 UNL       0.050200
     29 H11         46.0250    -7.5080    28.8680 h1         1 UNL       0.061950
     30 H12         46.6820    -8.0800    27.3120 h1         1 UNL       0.061950
     31 H13         48.9440   -12.5710    30.2280 h1         1 UNL       0.061950
     32 H14         47.7630   -11.9970    29.0220 h1         1 UNL       0.061950
@<TRIPOS>BOND
     1     1     3 ar  
     2     1     5 ar  
     3     1    19 1   
     4     2     4 ar  
     5     2     5 ar  
     6     2    20 1   
     7     3     6 ar  
     8     3    21 1   
     9     4     6 ar  
    10     4    22 1   
    11     5    11 1   
    12     6    15 1   
    13     7     9 1   
    14     7    23 1   
    15     7    24 1   
    16     7    25 1   
    17     8    10 1   
    18     8    26 1   
    19     8    27 1   
    20     8    28 1   
    21     9    16 1   
    22     9    29 1   
    23     9    30 1   
    24    10    17 1   
    25    10    31 1   
    26    10    32 1   
    27    11    12 1   
    28    11    13 1   
    29    14    18 2   
    30    15    18 1   
    31    16    18 1   
    32    17    18 1   
@<TRIPOS>SUBSTRUCTURE
     1 UNL         1 TEMP              0 ****  ****    0 ROOT
