@<TRIPOS>MOLECULE
WT1
    3     2     1     0     0
SMALL
RESP Charge
 
 
@<TRIPOS>ATOM
      1 O          46.5300   -5.4640   29.3120 Y4        1 WT1     -0.509111
      2 H1         46.4430   -5.2260   30.2790 H1        1 WT1      0.355363
      3 H2         47.4580   -5.3130   28.9710 H2        1 WT1      0.149227
@<TRIPOS>BOND
     1    1    2 1
     2    1    3 1
@<TRIPOS>SUBSTRUCTURE
     1 WT1         1 TEMP              0 ****  ****    0 ROOT
