@<TRIPOS>MOLECULE
AP1
   12    11     1     0     0
SMALL
RESP Charge
 
 
@<TRIPOS>ATOM
      1 N          43.0370   -2.0760   34.2590 N         1 AP1     -0.516300
      2 CA         43.3870   -3.1880   33.4350 CX        1 AP1      0.038100
      3 C          42.9010   -4.4620   34.1270 C         1 AP1      0.536600
      4 O          43.5980   -5.4740   34.2200 O         1 AP1     -0.581900
      5 CB         44.8680   -3.2300   33.0160 2C        1 AP1      0.867816
      6 CG         45.2050   -4.2880   31.9650 CO        1 AP1      0.475299
      7 OD1        46.2970   -4.8260   31.9060 O2        1 AP1     -0.599187
      8 OD2        44.2600   -4.5850   31.0970 Y3        1 AP1     -0.466777
      9 H          42.4810   -1.3360   33.8560 H         1 AP1      0.401917
     10 HA         42.8000   -3.0970   32.5250 H1        1 AP1      0.198879
     11 HB2        45.1830   -2.2530   32.6490 HC        1 AP1     -0.228026
     12 HB3        45.4020   -3.4940   33.9160 HC        1 AP1     -0.228026
@<TRIPOS>BOND
     1    1    2 1
     2    1    9 1
     3    2    3 1
     4    2    5 1
     5    2   10 1
     6    3    4 1
     7    5    6 1
     8    5   11 1
     9    5   12 1
    10    6    7 1
    11    6    8 1
@<TRIPOS>SUBSTRUCTURE
     1 AP1         1 TEMP              0 ****  ****    0 ROOT
