@<TRIPOS>MOLECULE
UNL
   32    32     1     0     0
SMALL
bcc


@<TRIPOS>ATOM
      1 C1          50.7290    -7.7580    30.5720 ca         1 UNL      -0.051500
      2 C2          51.2380   -10.0200    29.8940 ca         1 UNL      -0.051500
      3 C3          49.3870    -7.9630    30.2480 ca         1 UNL      -0.161500
      4 C4          49.8960   -10.2250    29.5700 ca         1 UNL      -0.161500
      5 C5          51.6540    -8.7860    30.3940 ca         1 UNL      -0.192200
      6 C6          48.9710    -9.1960    29.7470 ca         1 UNL       0.197100
      7 C7          46.2480    -8.6450    34.0680 c3         1 UNL      -0.115600
      8 C8          44.7430    -9.1460    27.6170 c3         1 UNL      -0.115600
      9 C9          45.7330    -8.4130    32.6640 c3         1 UNL       0.167900
     10 C10         44.9760   -10.2610    28.6150 c3         1 UNL       0.167900
     11 N1          53.0190    -8.5780    30.7230 no         1 UNL       0.315200
     12 O1          53.3730    -7.4610    31.1720 o          1 UNL      -0.208000
     13 O2          53.8350    -9.5160    30.5560 o          1 UNL      -0.208000
     14 O3          46.1270    -7.2710    29.6850 o          1 UNL      -0.811300
     15 O4          47.6550    -9.3970    29.4300 os         1 UNL      -0.484500
     16 O5          46.7230    -8.8220    31.7360 os         1 UNL      -0.568200
     17 O6          45.1760    -9.6970    29.8990 os         1 UNL      -0.568200
     18 P1          46.4060    -8.6710    30.1530 p5         1 UNL       1.629500
     19 H1          51.0400    -6.7910    30.9610 ha         1 UNL       0.175500
     20 H2          51.9480   -10.8300    29.7500 ha         1 UNL       0.175500
     21 H3          48.6710    -7.1570    30.3890 ha         1 UNL       0.168000
     22 H4          49.5780   -11.1880    29.1800 ha         1 UNL       0.168000
     23 H5          46.4660    -9.7040    34.2340 hc         1 UNL       0.050533
     24 H6          47.1600    -8.0650    34.2460 hc         1 UNL       0.050533
     25 H7          45.5120    -8.3160    34.8090 hc         1 UNL       0.050533
     26 H8          43.8580    -8.5620    27.8840 hc         1 UNL       0.050533
     27 H9          45.6090    -8.4760    27.5780 hc         1 UNL       0.050533
     28 H10         44.6090    -9.5520    26.6090 hc         1 UNL       0.050533
     29 H11         45.5180    -7.3520    32.5050 h1         1 UNL       0.057200
     30 H12         44.8230    -8.9940    32.4870 h1         1 UNL       0.057200
     31 H13         45.8630   -10.8400    28.3420 h1         1 UNL       0.057200
     32 H14         44.1090   -10.9280    28.6530 h1         1 UNL       0.057200
@<TRIPOS>BOND
     1     1     3 ar  
     2     1     5 ar  
     3     1    19 1   
     4     2     4 ar  
     5     2     5 ar  
     6     2    20 1   
     7     3     6 ar  
     8     3    21 1   
     9     4     6 ar  
    10     4    22 1   
    11     5    11 1   
    12     6    15 1   
    13     7     9 1   
    14     7    23 1   
    15     7    24 1   
    16     7    25 1   
    17     8    10 1   
    18     8    26 1   
    19     8    27 1   
    20     8    28 1   
    21     9    16 1   
    22     9    29 1   
    23     9    30 1   
    24    10    17 1   
    25    10    31 1   
    26    10    32 1   
    27    11    12 1   
    28    11    13 1   
    29    14    18 2   
    30    15    18 1   
    31    16    18 1   
    32    17    18 1   
@<TRIPOS>SUBSTRUCTURE
     1 UNL         1 TEMP              0 ****  ****    0 ROOT
