@<TRIPOS>MOLECULE
HD2
   17    17     1     0     0
SMALL
RESP Charge
 
 
@<TRIPOS>ATOM
      1 N          38.8920   -4.9840   30.6960 N         1 HD2     -0.415700
      2 CA         38.4930   -6.1330   29.9030 CX        1 HD2      0.018800
      3 C          37.4120   -6.8820   30.5980 C         1 HD2      0.597300
      4 O          37.4360   -7.0360   31.8500 O         1 HD2     -0.567900
      5 CB         39.6600   -7.1790   29.8440 CT        1 HD2      0.180633
      6 CG         40.8990   -6.6320   29.2300 CC        1 HD2     -0.135916
      7 ND1        41.0910   -6.6530   27.8500 NA        1 HD2     -0.112513
      8 CD2        41.9860   -6.0480   29.8030 CV        1 HD2      0.011091
      9 CE1        42.2760   -6.0830   27.6250 CR        1 HD2     -0.027568
     10 NE2        42.8290   -5.7040   28.7690 Y2        1 HD2     -0.224372
     11 H          38.8520   -5.0610   31.7030 H         1 HD2      0.337593
     12 HA         38.1840   -5.8460   28.8990 H1        1 HD2      0.107533
     13 HB2        39.9150   -7.4850   30.8540 HC        1 HD2      0.037182
     14 HB3        39.3410   -8.0580   29.2810 HC        1 HD2      0.037182
     15 HD1        40.4590   -7.0210   27.1590 H         1 HD2      0.330436
     16 HD2        42.1400   -5.8770   30.8590 H4        1 HD2      0.096234
     17 HE1        42.7170   -5.9430   26.6500 H5        1 HD2      0.172409
@<TRIPOS>BOND
     1    1    2 1
     2    1   11 1
     3    2    3 1
     4    2    5 1
     5    2   12 1
     6    3    4 1
     7    5    6 1
     8    5   13 1
     9    5   14 1
    10    6    7 1
    11    6    8 1
    12    7    9 1
    13    7   15 1
    14    8   10 1
    15    8   16 1
    16    9   10 1
    17    9   17 1
@<TRIPOS>SUBSTRUCTURE
     1 HD2         1 TEMP              0 ****  ****    0 ROOT
