@<TRIPOS>MOLECULE
UNL
   32    32     1     0     0
SMALL
bcc


@<TRIPOS>ATOM
      1 C1          47.1570    -9.8710    33.7870 ca         1 UNL      -0.049500
      2 C2          45.4930    -8.1950    34.2960 ca         1 UNL      -0.049500
      3 C3          47.2140    -9.4140    32.4700 ca         1 UNL      -0.159500
      4 C4          45.5500    -7.7390    32.9790 ca         1 UNL      -0.159500
      5 C5          46.2960    -9.2610    34.7000 ca         1 UNL      -0.192200
      6 C6          46.4100    -8.3480    32.0660 ca         1 UNL       0.211100
      7 C7          44.7270    -9.8970    29.3220 c3         1 UNL      -0.120600
      8 C8          50.0050    -9.9410    28.7960 c3         1 UNL      -0.120600
      9 C9          46.0000   -10.5720    28.8570 c3         1 UNL       0.165400
     10 C10         50.0440    -8.5710    29.4390 c3         1 UNL       0.165400
     11 N1          46.2380    -9.7260    36.0400 no         1 UNL       0.316200
     12 O1          46.9690   -10.6860    36.3840 o          1 UNL      -0.209000
     13 O2          45.4570    -9.1640    36.8450 o          1 UNL      -0.209000
     14 O3          47.2970    -7.8490    28.2790 o          1 UNL      -0.793300
     15 O4          46.4660    -7.9000    30.7740 os         1 UNL      -0.482500
     16 O5          47.0840   -10.1010    29.6390 os         1 UNL      -0.581700
     17 O6          48.9020    -8.4160    30.2640 os         1 UNL      -0.581700
     18 P1          47.4160    -8.5140    29.6210 p5         1 UNL       1.632500
     19 H1          47.7890   -10.7020    34.0890 ha         1 UNL       0.174000
     20 H2          44.8170    -7.7110    34.9970 ha         1 UNL       0.174000
     21 H3          47.8870    -9.8920    31.7640 ha         1 UNL       0.161000
     22 H4          44.9210    -6.9080    32.6710 ha         1 UNL       0.161000
     23 H5          44.5260   -10.1260    30.3720 hc         1 UNL       0.050200
     24 H6          44.8010    -8.8110    29.2040 hc         1 UNL       0.050200
     25 H7          43.8740   -10.2260    28.7190 hc         1 UNL       0.050200
     26 H8          50.0140   -10.7280    29.5550 hc         1 UNL       0.050200
     27 H9          49.1070   -10.0540    28.1800 hc         1 UNL       0.050200
     28 H10         50.8660   -10.0800    28.1330 hc         1 UNL       0.050200
     29 H11         46.1960   -10.3390    27.8060 h1         1 UNL       0.061950
     30 H12         45.9250   -11.6570    28.9760 h1         1 UNL       0.061950
     31 H13         50.0350    -7.7880    28.6740 h1         1 UNL       0.061950
     32 H14         50.9410    -8.4600    30.0540 h1         1 UNL       0.061950
@<TRIPOS>BOND
     1     1     3 ar  
     2     1     5 ar  
     3     1    19 1   
     4     2     4 ar  
     5     2     5 ar  
     6     2    20 1   
     7     3     6 ar  
     8     3    21 1   
     9     4     6 ar  
    10     4    22 1   
    11     5    11 1   
    12     6    15 1   
    13     7     9 1   
    14     7    23 1   
    15     7    24 1   
    16     7    25 1   
    17     8    10 1   
    18     8    26 1   
    19     8    27 1   
    20     8    28 1   
    21     9    16 1   
    22     9    29 1   
    23     9    30 1   
    24    10    17 1   
    25    10    31 1   
    26    10    32 1   
    27    11    12 1   
    28    11    13 1   
    29    14    18 2   
    30    15    18 1   
    31    16    18 1   
    32    17    18 1   
@<TRIPOS>SUBSTRUCTURE
     1 UNL         1 TEMP              0 ****  ****    0 ROOT
