@<TRIPOS>MOLECULE
UNL
   32    32     1     0     0
SMALL
bcc


@<TRIPOS>ATOM
      1 C1          45.0610    -8.3460    32.9500 ca         1 UNL      -0.049000
      2 C2          47.2240    -8.8430    33.9050 ca         1 UNL      -0.049000
      3 C3          45.6800    -7.8750    31.7920 ca         1 UNL      -0.161000
      4 C4          47.8430    -8.3730    32.7470 ca         1 UNL      -0.161000
      5 C5          45.8330    -8.8300    34.0060 ca         1 UNL      -0.193200
      6 C6          47.0710    -7.8890    31.6910 ca         1 UNL       0.212100
      7 C7          43.9760    -9.5980    28.1810 c3         1 UNL      -0.121100
      8 C8          50.3980    -8.5030    29.8080 c3         1 UNL      -0.121100
      9 C9          45.4320    -9.2470    27.9550 c3         1 UNL       0.164400
     10 C10         49.6950    -9.3920    28.8040 c3         1 UNL       0.164400
     11 N1          45.2020    -9.3090    35.1850 no         1 UNL       0.316200
     12 O1          43.9500    -9.2880    35.2560 o          1 UNL      -0.209000
     13 O2          45.9150    -9.7390    36.1240 o          1 UNL      -0.209000
     14 O3          47.8330    -7.1100    27.9470 o          1 UNL      -0.793300
     15 O4          47.6790    -7.4280    30.5550 os         1 UNL      -0.486500
     16 O5          45.9110    -8.5240    29.0760 os         1 UNL      -0.578200
     17 O6          48.3080    -9.4110    29.0960 os         1 UNL      -0.578200
     18 P1          47.4550    -8.0310    29.0730 p5         1 UNL       1.631500
     19 H1          43.9760    -8.3300    33.0160 ha         1 UNL       0.174000
     20 H2          47.8370    -9.2170    34.7210 ha         1 UNL       0.174000
     21 H3          45.0740    -7.5000    30.9720 ha         1 UNL       0.160000
     22 H4          48.9270    -8.3860    32.6740 ha         1 UNL       0.160000
     23 H5          43.8580   -10.2190    29.0730 hc         1 UNL       0.050033
     24 H6          43.3750    -8.6910    28.2990 hc         1 UNL       0.050033
     25 H7          43.5720   -10.1380    27.3180 hc         1 UNL       0.050033
     26 H8          50.0170    -7.4800    29.7560 hc         1 UNL       0.050033
     27 H9          50.2560    -8.8830    30.8250 hc         1 UNL       0.050033
     28 H10         51.4770    -8.4880    29.6210 hc         1 UNL       0.050033
     29 H11         45.5430    -8.6260    27.0610 h1         1 UNL       0.063200
     30 H12         46.0320   -10.1540    27.8380 h1         1 UNL       0.063200
     31 H13         50.0810   -10.4150    28.8610 h1         1 UNL       0.063200
     32 H14         49.8370    -9.0120    27.7890 h1         1 UNL       0.063200
@<TRIPOS>BOND
     1     1     3 ar  
     2     1     5 ar  
     3     1    19 1   
     4     2     4 ar  
     5     2     5 ar  
     6     2    20 1   
     7     3     6 ar  
     8     3    21 1   
     9     4     6 ar  
    10     4    22 1   
    11     5    11 1   
    12     6    15 1   
    13     7     9 1   
    14     7    23 1   
    15     7    24 1   
    16     7    25 1   
    17     8    10 1   
    18     8    26 1   
    19     8    27 1   
    20     8    28 1   
    21     9    16 1   
    22     9    29 1   
    23     9    30 1   
    24    10    17 1   
    25    10    31 1   
    26    10    32 1   
    27    11    12 1   
    28    11    13 1   
    29    14    18 2   
    30    15    18 1   
    31    16    18 1   
    32    17    18 1   
@<TRIPOS>SUBSTRUCTURE
     1 UNL         1 TEMP              0 ****  ****    0 ROOT
