@<TRIPOS>MOLECULE
UNL
   32    32     1     0     0
SMALL
bcc


@<TRIPOS>ATOM
      1 C1          47.2810    -8.7670    33.8080 ca         1 UNL      -0.049500
      2 C2          45.0450    -8.5080    32.9310 ca         1 UNL      -0.049500
      3 C3          47.8090    -8.3600    32.5830 ca         1 UNL      -0.159500
      4 C4          45.5730    -8.1010    31.7060 ca         1 UNL      -0.159500
      5 C5          45.8990    -8.8410    33.9820 ca         1 UNL      -0.192200
      6 C6          46.9550    -8.0280    31.5320 ca         1 UNL       0.211100
      7 C7          44.3250    -9.8900    27.9300 c3         1 UNL      -0.120600
      8 C8          50.2490   -11.6230    29.8820 c3         1 UNL      -0.120600
      9 C9          45.4920    -8.9290    28.0010 c3         1 UNL       0.165400
     10 C10         49.3180   -10.7950    29.0220 c3         1 UNL       0.165400
     11 N1          45.3610    -9.2550    35.2300 no         1 UNL       0.316200
     12 O1          46.1470    -9.5500    36.1630 o          1 UNL      -0.209000
     13 O2          44.1150    -9.3140    35.3650 o          1 UNL      -0.209000
     14 O3          48.3960    -7.9370    27.8850 o          1 UNL      -0.793300
     15 O4          47.4730    -7.6290    30.3290 os         1 UNL      -0.482500
     16 O5          46.4810    -9.4670    28.8630 os         1 UNL      -0.581700
     17 O6          48.8590    -9.6850    29.7740 os         1 UNL      -0.581700
     18 P1          47.8390    -8.6160    29.1040 p5         1 UNL       1.632500
     19 H1          47.9580    -9.0230    34.6200 ha         1 UNL       0.174000
     20 H2          43.9660    -8.5610    33.0530 ha         1 UNL       0.174000
     21 H3          48.8860    -8.3050    32.4540 ha         1 UNL       0.161000
     22 H4          44.9020    -7.8440    30.8900 ha         1 UNL       0.161000
     23 H5          44.6410   -10.8600    27.5350 hc         1 UNL       0.050200
     24 H6          43.8860   -10.0390    28.9220 hc         1 UNL       0.050200
     25 H7          43.5340    -9.4890    27.2880 hc         1 UNL       0.050200
     26 H8          51.1140   -11.0340    30.1990 hc         1 UNL       0.050200
     27 H9          49.7270   -11.9910    30.7720 hc         1 UNL       0.050200
     28 H10         50.6010   -12.5030    29.3330 hc         1 UNL       0.050200
     29 H11         45.1690    -7.9620    28.3970 h1         1 UNL       0.061950
     30 H12         45.9310    -8.7830    27.0100 h1         1 UNL       0.061950
     31 H13         48.4540   -11.3900    28.7090 h1         1 UNL       0.061950
     32 H14         49.8400   -10.4280    28.1340 h1         1 UNL       0.061950
@<TRIPOS>BOND
     1     1     3 ar  
     2     1     5 ar  
     3     1    19 1   
     4     2     4 ar  
     5     2     5 ar  
     6     2    20 1   
     7     3     6 ar  
     8     3    21 1   
     9     4     6 ar  
    10     4    22 1   
    11     5    11 1   
    12     6    15 1   
    13     7     9 1   
    14     7    23 1   
    15     7    24 1   
    16     7    25 1   
    17     8    10 1   
    18     8    26 1   
    19     8    27 1   
    20     8    28 1   
    21     9    16 1   
    22     9    29 1   
    23     9    30 1   
    24    10    17 1   
    25    10    31 1   
    26    10    32 1   
    27    11    12 1   
    28    11    13 1   
    29    14    18 2   
    30    15    18 1   
    31    16    18 1   
    32    17    18 1   
@<TRIPOS>SUBSTRUCTURE
     1 UNL         1 TEMP              0 ****  ****    0 ROOT
