@<TRIPOS>MOLECULE
WT2
    3     2     1     0     0
SMALL
RESP Charge
 
 
@<TRIPOS>ATOM
      1 O          48.1430   -7.0040   28.0170 Y7        1 WT2     -0.678118
      2 H1         49.0620   -6.6760   27.8000 H1        1 WT2      0.346889
      3 H2         48.0890   -7.3860   28.9400 H2        1 WT2      0.477088
@<TRIPOS>BOND
     1    1    2 1
     2    1    3 1
@<TRIPOS>SUBSTRUCTURE
     1 WT2         1 TEMP              0 ****  ****    0 ROOT
