@<TRIPOS>MOLECULE
UNL
   32    32     1     0     0
SMALL
bcc


@<TRIPOS>ATOM
      1 C1          45.5350    -9.2250    32.5580 ca         1 UNL      -0.051500
      2 C2          46.9330    -7.4350    33.3810 ca         1 UNL      -0.051500
      3 C3          46.4640    -9.4880    31.5520 ca         1 UNL      -0.161500
      4 C4          47.8620    -7.6980    32.3750 ca         1 UNL      -0.161500
      5 C5          45.7700    -8.1990    33.4730 ca         1 UNL      -0.192200
      6 C6          47.6280    -8.7240    31.4600 ca         1 UNL       0.197100
      7 C7          44.7040    -8.7260    27.4270 c3         1 UNL      -0.115600
      8 C8          50.0560   -11.9950    28.7310 c3         1 UNL      -0.115600
      9 C9          46.0420    -9.4270    27.5260 c3         1 UNL       0.167900
     10 C10         48.9500   -11.9860    29.7640 c3         1 UNL       0.167900
     11 N1          44.8240    -7.9310    34.4980 no         1 UNL       0.315200
     12 O1          43.7840    -8.6290    34.5630 o          1 UNL      -0.208000
     13 O2          45.0540    -7.0020    35.3100 o          1 UNL      -0.208000
     14 O3          49.2260    -9.3450    27.9580 o          1 UNL      -0.811300
     15 O4          48.5400    -8.9820    30.4720 os         1 UNL      -0.484500
     16 O5          46.7160    -8.9720    28.6860 os         1 UNL      -0.568200
     17 O6          47.9000   -11.1490    29.3090 os         1 UNL      -0.568200
     18 P1          48.1820    -9.5800    29.0140 p5         1 UNL       1.629500
     19 H1          44.6330    -9.8280    32.6190 ha         1 UNL       0.175500
     20 H2          47.1290    -6.6310    34.0870 ha         1 UNL       0.175500
     21 H3          46.2760   -10.2890    30.8420 ha         1 UNL       0.168000
     22 H4          48.7670    -7.0990    32.3080 ha         1 UNL       0.168000
     23 H5          44.0830    -8.9440    28.3000 hc         1 UNL       0.050533
     24 H6          44.8400    -7.6420    27.3520 hc         1 UNL       0.050533
     25 H7          44.1690    -9.0410    26.5250 hc         1 UNL       0.050533
     26 H8          49.6930   -12.3790    27.7740 hc         1 UNL       0.050533
     27 H9          50.4510   -10.9840    28.5800 hc         1 UNL       0.050533
     28 H10         50.8930   -12.6160    29.0670 hc         1 UNL       0.050533
     29 H11         46.6570    -9.2040    26.6500 h1         1 UNL       0.057200
     30 H12         45.9030   -10.5100    27.6010 h1         1 UNL       0.057200
     31 H13         49.3190   -11.6010    30.7190 h1         1 UNL       0.057200
     32 H14         48.5560   -12.9960    29.9130 h1         1 UNL       0.057200
@<TRIPOS>BOND
     1     1     3 ar  
     2     1     5 ar  
     3     1    19 1   
     4     2     4 ar  
     5     2     5 ar  
     6     2    20 1   
     7     3     6 ar  
     8     3    21 1   
     9     4     6 ar  
    10     4    22 1   
    11     5    11 1   
    12     6    15 1   
    13     7     9 1   
    14     7    23 1   
    15     7    24 1   
    16     7    25 1   
    17     8    10 1   
    18     8    26 1   
    19     8    27 1   
    20     8    28 1   
    21     9    16 1   
    22     9    29 1   
    23     9    30 1   
    24    10    17 1   
    25    10    31 1   
    26    10    32 1   
    27    11    12 1   
    28    11    13 1   
    29    14    18 2   
    30    15    18 1   
    31    16    18 1   
    32    17    18 1   
@<TRIPOS>SUBSTRUCTURE
     1 UNL         1 TEMP              0 ****  ****    0 ROOT
