@<TRIPOS>MOLECULE
UNL
   32    32     1     0     0
SMALL
bcc


@<TRIPOS>ATOM
      1 C1          47.8980    -9.4820    32.7260 ca         1 UNL      -0.050000
      2 C2          48.2650    -7.1800    32.0910 ca         1 UNL      -0.050000
      3 C3          48.2430    -9.8920    31.4380 ca         1 UNL      -0.159500
      4 C4          48.6100    -7.5900    30.8030 ca         1 UNL      -0.159500
      5 C5          47.9090    -8.1260    33.0520 ca         1 UNL      -0.192200
      6 C6          48.5990    -8.9460    30.4770 ca         1 UNL       0.210100
      7 C7          44.1010    -9.5820    28.4320 c3         1 UNL      -0.110100
      8 C8          50.3560   -11.9860    28.8470 c3         1 UNL      -0.110100
      9 C9          45.3710   -10.2530    27.9550 c3         1 UNL       0.164400
     10 C10         49.0210   -12.5690    28.4350 c3         1 UNL       0.164400
     11 N1          47.5580    -7.7080    34.3630 no         1 UNL       0.316200
     12 O1          47.2410    -8.5750    35.2130 o          1 UNL      -0.208500
     13 O2          47.5750    -6.4840    34.6360 o          1 UNL      -0.208500
     14 O3          48.3500   -10.0900    26.7580 o          1 UNL      -0.791300
     15 O4          48.9370    -9.3480    29.2130 os         1 UNL      -0.480500
     16 O5          46.4840    -9.6210    28.5640 os         1 UNL      -0.578700
     17 O6          47.9900   -11.6710    28.8090 os         1 UNL      -0.578700
     18 P1          47.9690   -10.1650    28.2100 p5         1 UNL       1.625500
     19 H1          47.6230   -10.2300    33.4650 ha         1 UNL       0.174000
     20 H2          48.2780    -6.1200    32.3320 ha         1 UNL       0.174000
     21 H3          48.2330   -10.9500    31.1890 ha         1 UNL       0.162000
     22 H4          48.8860    -6.8480    30.0590 ha         1 UNL       0.162000
     23 H5          43.9990    -9.6660    29.5170 hc         1 UNL       0.050867
     24 H6          44.0980    -8.5220    28.1580 hc         1 UNL       0.050867
     25 H7          43.2240   -10.0350    27.9580 hc         1 UNL       0.050867
     26 H8          50.5320   -11.0270    28.3510 hc         1 UNL       0.050867
     27 H9          50.3940   -11.8370    29.9310 hc         1 UNL       0.050867
     28 H10         51.1710   -12.6710    28.5910 hc         1 UNL       0.050867
     29 H11         45.4670   -10.1650    26.8690 h1         1 UNL       0.055200
     30 H12         45.3730   -11.3120    28.2300 h1         1 UNL       0.055200
     31 H13         48.8510   -13.5280    28.9340 h1         1 UNL       0.055200
     32 H14         48.9840   -12.7170    27.3520 h1         1 UNL       0.055200
@<TRIPOS>BOND
     1     1     3 ar  
     2     1     5 ar  
     3     1    19 1   
     4     2     4 ar  
     5     2     5 ar  
     6     2    20 1   
     7     3     6 ar  
     8     3    21 1   
     9     4     6 ar  
    10     4    22 1   
    11     5    11 1   
    12     6    15 1   
    13     7     9 1   
    14     7    23 1   
    15     7    24 1   
    16     7    25 1   
    17     8    10 1   
    18     8    26 1   
    19     8    27 1   
    20     8    28 1   
    21     9    16 1   
    22     9    29 1   
    23     9    30 1   
    24    10    17 1   
    25    10    31 1   
    26    10    32 1   
    27    11    12 1   
    28    11    13 1   
    29    14    18 2   
    30    15    18 1   
    31    16    18 1   
    32    17    18 1   
@<TRIPOS>SUBSTRUCTURE
     1 UNL         1 TEMP              0 ****  ****    0 ROOT
