@<TRIPOS>MOLECULE
*****
   32    32     0     0     0
SMALL
NO_CHARGES

@<TRIPOS>ATOM
      1 C1         50.1773   -8.2760   30.1823 C.ar      1 <0>         0.0000
      2 C2         50.2818  -10.6346   29.6694 C.ar      1 <0>         0.0000
      3 C3         48.7904   -8.3060   30.0378 C.ar      1 <0>         0.0000
      4 C4         48.8948  -10.6647   29.5251 C.ar      1 <0>         0.0000
      5 C5         50.9232   -9.4403   29.9981 C.ar      1 <0>         0.0000
      6 C6         48.1491   -9.5004   29.7092 C.ar      1 <0>         0.0000
      7 C7         45.8259   -8.3798   33.6689 C.3       1 <0>         0.0000
      8 C8         44.6531   -9.9670   27.4804 C.3       1 <0>         0.0000
      9 C9         45.6743   -8.9393   32.2704 C.3       1 <0>         0.0000
     10 C10        43.7627   -9.0563   28.2986 C.3       1 <0>         0.0000
     11 N1         52.3351   -9.4100   30.1448 N.pl3     1 <0>         0.0000
     12 O1         52.8927   -8.3255   30.4406 O.3       1 <0>         0.0000
     13 O2         52.9871  -10.4686   29.9743 O.2       1 <0>         0.0000
     14 O3         46.0758   -7.1100   28.8200 O.2       1 <0>         0.0000
     15 O4         46.7881   -9.5298   29.5676 O.3       1 <0>         0.0000
     16 O5         45.9132   -7.9053   31.3313 O.3       1 <0>         0.0000
     17 O6         44.3274   -8.8959   29.5887 O.3       1 <0>         0.0000
     18 P1         45.8094   -8.2579   29.7526 P.3       1 <0>         0.0000
     19 H1         50.6647   -7.3386   30.4389 H         1 <0>         0.0000
     20 H2         50.8509  -11.5494   29.5224 H         1 <0>         0.0000
     21 H3         48.2147   -7.3959   30.1829 H         1 <0>         0.0000
     22 H4         48.4009  -11.5980   29.2686 H         1 <0>         0.0000
     23 H5         46.8360   -7.9918   33.8266 H         1 <0>         0.0000
     24 H6         45.1061   -7.5730   33.8421 H         1 <0>         0.0000
     25 H7         45.6236   -9.1529   34.4178 H         1 <0>         0.0000
     26 H8         45.6541   -9.5401   27.3726 H         1 <0>         0.0000
     27 H9         44.7374  -10.9510   27.9533 H         1 <0>         0.0000
     28 H10        44.2286  -10.1281   26.4839 H         1 <0>         0.0000
     29 H11        44.6619   -9.3256   32.1194 H         1 <0>         0.0000
     30 H12        46.3946   -9.7447   32.0989 H         1 <0>         0.0000
     31 H13        42.7633   -9.4890   28.4026 H         1 <0>         0.0000
     32 H14        43.6802   -8.0734   27.8252 H         1 <0>         0.0000
@<TRIPOS>BOND
     1    1    3 ar
     2    1    5 ar
     3    2    4 ar
     4    2    5 ar
     5    3    6 ar
     6    4    6 ar
     7    5   11 1
     8    6   15 1
     9    7    9 1
    10    8   10 1
    11    9   16 1
    12   10   17 1
    13   11   12 1
    14   11   13 2
    15   14   18 2
    16   15   18 1
    17   16   18 1
    18   17   18 1
    19    1   19 1
    20    2   20 1
    21    3   21 1
    22    4   22 1
    23    7   23 1
    24    7   24 1
    25    7   25 1
    26    8   26 1
    27    8   27 1
    28    8   28 1
    29    9   29 1
    30    9   30 1
    31   10   31 1
    32   10   32 1
@<TRIPOS>MOLECULE
*****
   32    32     0     0     0
SMALL
NO_CHARGES

@<TRIPOS>ATOM
      1 C1         50.5652   -8.0143   30.2994 C.ar      1 <0>         0.0000
      2 C2         50.9199  -10.3146   29.6512 C.ar      1 <0>         0.0000
      3 C3         49.2092   -8.1382   29.9973 C.ar      1 <0>         0.0000
      4 C4         49.5638  -10.4384   29.3491 C.ar      1 <0>         0.0000
      5 C5         51.4207   -9.1024   30.1263 C.ar      1 <0>         0.0000
      6 C6         48.7084   -9.3503   29.5222 C.ar      1 <0>         0.0000
      7 C7         46.0885   -8.5612   33.8697 C.3       1 <0>         0.0000
      8 C8         44.4621   -9.0629   27.4483 C.3       1 <0>         0.0000
      9 C9         45.5692   -8.3180   32.4686 C.3       1 <0>         0.0000
     10 C10        44.6374  -10.1752   28.4602 C.3       1 <0>         0.0000
     11 N1         52.8013   -8.9766   30.4335 N.pl3     1 <0>         0.0000
     12 O1         53.2316   -7.8776   30.8596 O.3       1 <0>         0.0000
     13 O2         53.5534   -9.9676   30.2701 O.2       1 <0>         0.0000
     14 O3         45.9920   -7.2486   29.4670 O.2       1 <0>         0.0000
     15 O4         47.3778   -9.4719   29.2259 O.3       1 <0>         0.0000
     16 O5         46.5176   -8.8030   31.5341 O.3       1 <0>         0.0000
     17 O6         44.8914   -9.6056   29.7330 O.3       1 <0>         0.0000
     18 P1         46.1880   -8.6568   29.9538 P.3       1 <0>         0.0000
     19 H1         50.9426   -7.0641   30.6694 H         1 <0>         0.0000
     20 H2         51.5755  -11.1706   29.5110 H         1 <0>         0.0000
     21 H3         48.5477   -7.2871   30.1345 H         1 <0>         0.0000
     22 H4         49.1797  -11.3851   28.9790 H         1 <0>         0.0000
     23 H5         46.2408   -9.6291   34.0494 H         1 <0>         0.0000
     24 H6         47.0373   -8.0375   34.0260 H         1 <0>         0.0000
     25 H7         45.3850   -8.1744   34.6144 H         1 <0>         0.0000
     26 H8         43.6194   -8.4201   27.7173 H         1 <0>         0.0000
     27 H9         45.3680   -8.4510   27.3864 H         1 <0>         0.0000
     28 H10        44.2873   -9.4747   26.4488 H         1 <0>         0.0000
     29 H11        45.4191   -7.2482   32.2954 H         1 <0>         0.0000
     30 H12        44.6217   -8.8425   32.3139 H         1 <0>         0.0000
     31 H13        45.4818  -10.8144   28.1854 H         1 <0>         0.0000
     32 H14        43.7313  -10.7851   28.5214 H         1 <0>         0.0000
@<TRIPOS>BOND
     1    1    3 ar
     2    1    5 ar
     3    2    4 ar
     4    2    5 ar
     5    3    6 ar
     6    4    6 ar
     7    5   11 1
     8    6   15 1
     9    7    9 1
    10    8   10 1
    11    9   16 1
    12   10   17 1
    13   11   12 1
    14   11   13 2
    15   14   18 2
    16   15   18 1
    17   16   18 1
    18   17   18 1
    19    1   19 1
    20    2   20 1
    21    3   21 1
    22    4   22 1
    23    7   23 1
    24    7   24 1
    25    7   25 1
    26    8   26 1
    27    8   27 1
    28    8   28 1
    29    9   29 1
    30    9   30 1
    31   10   31 1
    32   10   32 1
@<TRIPOS>MOLECULE
*****
   32    32     0     0     0
SMALL
NO_CHARGES

@<TRIPOS>ATOM
      1 C1         50.6390   -8.6164   30.2920 C.ar      1 <0>         0.0000
      2 C2         50.2873  -10.7676   29.2500 C.ar      1 <0>         0.0000
      3 C3         49.3027   -8.5911   30.6910 C.ar      1 <0>         0.0000
      4 C4         48.9510  -10.7424   29.6490 C.ar      1 <0>         0.0000
      5 C5         51.1314   -9.7046   29.5715 C.ar      1 <0>         0.0000
      6 C6         48.4587   -9.6541   30.3695 C.ar      1 <0>         0.0000
      7 C7         46.0451   -8.5755   33.3685 C.3       1 <0>         0.0000
      8 C8         44.5895  -10.5495   27.3216 C.3       1 <0>         0.0000
      9 C9         44.8284   -8.1148   32.5945 C.3       1 <0>         0.0000
     10 C10        45.0093  -10.3292   28.7593 C.3       1 <0>         0.0000
     11 N1         52.4916   -9.7306   29.1650 N.pl3     1 <0>         0.0000
     12 O1         53.2343   -8.7643   29.4642 O.3       1 <0>         0.0000
     13 O2         52.9140  -10.7188   28.5172 O.2       1 <0>         0.0000
     14 O3         46.6031   -7.0962   30.3045 O.2       1 <0>         0.0000
     15 O4         47.1475   -9.6294   30.7611 O.3       1 <0>         0.0000
     16 O5         44.8192   -8.7503   31.3279 O.3       1 <0>         0.0000
     17 O6         45.5388   -9.0211   28.8904 O.3       1 <0>         0.0000
     18 P1         46.0730   -8.5022   30.3311 P.3       1 <0>         0.0000
     19 H1         51.2863   -7.7816   30.5495 H         1 <0>         0.0000
     20 H2         50.6578  -11.6217   28.6885 H         1 <0>         0.0000
     21 H3         48.9251   -7.7409   31.2524 H         1 <0>         0.0000
     22 H4         48.2983  -11.5731   29.3953 H         1 <0>         0.0000
     23 H5         46.0233   -9.6581   33.5215 H         1 <0>         0.0000
     24 H6         46.9644   -8.3121   32.8352 H         1 <0>         0.0000
     25 H7         46.0910   -8.0817   34.3448 H         1 <0>         0.0000
     26 H8         43.8208   -9.8305   27.0250 H         1 <0>         0.0000
     27 H9         45.4475  -10.4474   26.6490 H         1 <0>         0.0000
     28 H10        44.1970  -11.5627   27.1852 H         1 <0>         0.0000
     29 H11        44.8564   -7.0313   32.4450 H         1 <0>         0.0000
     30 H12        43.9108   -8.3794   33.1283 H         1 <0>         0.0000
     31 H13        45.7782  -11.0514   29.0496 H         1 <0>         0.0000
     32 H14        44.1507  -10.4308   29.4298 H         1 <0>         0.0000
@<TRIPOS>BOND
     1    1    3 ar
     2    1    5 ar
     3    2    4 ar
     4    2    5 ar
     5    3    6 ar
     6    4    6 ar
     7    5   11 1
     8    6   15 1
     9    7    9 1
    10    8   10 1
    11    9   16 1
    12   10   17 1
    13   11   12 1
    14   11   13 2
    15   14   18 2
    16   15   18 1
    17   16   18 1
    18   17   18 1
    19    1   19 1
    20    2   20 1
    21    3   21 1
    22    4   22 1
    23    7   23 1
    24    7   24 1
    25    7   25 1
    26    8   26 1
    27    8   27 1
    28    8   28 1
    29    9   29 1
    30    9   30 1
    31   10   31 1
    32   10   32 1
@<TRIPOS>MOLECULE
*****
   32    32     0     0     0
SMALL
NO_CHARGES

@<TRIPOS>ATOM
      1 C1         50.7216   -8.0266   30.2994 C.ar      1 <0>         0.0000
      2 C2         51.0764  -10.3269   29.6512 C.ar      1 <0>         0.0000
      3 C3         49.3656   -8.1506   29.9973 C.ar      1 <0>         0.0000
      4 C4         49.7203  -10.4508   29.3491 C.ar      1 <0>         0.0000
      5 C5         51.5771   -9.1148   30.1263 C.ar      1 <0>         0.0000
      6 C6         48.8649   -9.3626   29.5222 C.ar      1 <0>         0.0000
      7 C7         46.2449   -8.5735   33.8697 C.3       1 <0>         0.0000
      8 C8         44.6186   -9.0753   27.4483 C.3       1 <0>         0.0000
      9 C9         45.7256   -8.3303   32.4686 C.3       1 <0>         0.0000
     10 C10        44.7939  -10.1875   28.4602 C.3       1 <0>         0.0000
     11 N1         52.9577   -8.9889   30.4335 N.pl3     1 <0>         0.0000
     12 O1         53.3880   -7.8899   30.8596 O.3       1 <0>         0.0000
     13 O2         53.7098   -9.9799   30.2701 O.2       1 <0>         0.0000
     14 O3         46.1484   -7.2609   29.4670 O.2       1 <0>         0.0000
     15 O4         47.5342   -9.4843   29.2259 O.3       1 <0>         0.0000
     16 O5         46.6741   -8.8154   31.5341 O.3       1 <0>         0.0000
     17 O6         45.0478   -9.6179   29.7330 O.3       1 <0>         0.0000
     18 P1         46.3444   -8.6691   29.9538 P.3       1 <0>         0.0000
     19 H1         51.0990   -7.0764   30.6694 H         1 <0>         0.0000
     20 H2         51.7319  -11.1829   29.5110 H         1 <0>         0.0000
     21 H3         48.7041   -7.2994   30.1345 H         1 <0>         0.0000
     22 H4         49.3361  -11.3974   28.9790 H         1 <0>         0.0000
     23 H5         46.3972   -9.6414   34.0494 H         1 <0>         0.0000
     24 H6         47.1937   -8.0499   34.0260 H         1 <0>         0.0000
     25 H7         45.5414   -8.1867   34.6144 H         1 <0>         0.0000
     26 H8         43.7759   -8.4324   27.7173 H         1 <0>         0.0000
     27 H9         45.5244   -8.4634   27.3864 H         1 <0>         0.0000
     28 H10        44.4438   -9.4871   26.4488 H         1 <0>         0.0000
     29 H11        45.5755   -7.2605   32.2954 H         1 <0>         0.0000
     30 H12        44.7781   -8.8548   32.3139 H         1 <0>         0.0000
     31 H13        45.6383  -10.8267   28.1854 H         1 <0>         0.0000
     32 H14        43.8877  -10.7974   28.5214 H         1 <0>         0.0000
@<TRIPOS>BOND
     1    1    3 ar
     2    1    5 ar
     3    2    4 ar
     4    2    5 ar
     5    3    6 ar
     6    4    6 ar
     7    5   11 1
     8    6   15 1
     9    7    9 1
    10    8   10 1
    11    9   16 1
    12   10   17 1
    13   11   12 1
    14   11   13 2
    15   14   18 2
    16   15   18 1
    17   16   18 1
    18   17   18 1
    19    1   19 1
    20    2   20 1
    21    3   21 1
    22    4   22 1
    23    7   23 1
    24    7   24 1
    25    7   25 1
    26    8   26 1
    27    8   27 1
    28    8   28 1
    29    9   29 1
    30    9   30 1
    31   10   31 1
    32   10   32 1
@<TRIPOS>MOLECULE
*****
   32    32     0     0     0
SMALL
NO_CHARGES

@<TRIPOS>ATOM
      1 C1         50.1925   -8.2760   30.3559 C.ar      1 <0>         0.0000
      2 C2         50.2970  -10.6346   29.8430 C.ar      1 <0>         0.0000
      3 C3         48.8056   -8.3060   30.2115 C.ar      1 <0>         0.0000
      4 C4         48.9100  -10.6647   29.6987 C.ar      1 <0>         0.0000
      5 C5         50.9384   -9.4403   30.1717 C.ar      1 <0>         0.0000
      6 C6         48.1643   -9.5004   29.8828 C.ar      1 <0>         0.0000
      7 C7         45.8411   -8.3798   33.8426 C.3       1 <0>         0.0000
      8 C8         44.6683   -9.9670   27.6541 C.3       1 <0>         0.0000
      9 C9         45.6894   -8.9393   32.4441 C.3       1 <0>         0.0000
     10 C10        43.7779   -9.0563   28.4723 C.3       1 <0>         0.0000
     11 N1         52.3503   -9.4100   30.3184 N.pl3     1 <0>         0.0000
     12 O1         52.9079   -8.3255   30.6142 O.3       1 <0>         0.0000
     13 O2         53.0023  -10.4686   30.1479 O.2       1 <0>         0.0000
     14 O3         46.0910   -7.1100   28.9937 O.2       1 <0>         0.0000
     15 O4         46.8033   -9.5298   29.7413 O.3       1 <0>         0.0000
     16 O5         45.9284   -7.9053   31.5049 O.3       1 <0>         0.0000
     17 O6         44.3426   -8.8959   29.7623 O.3       1 <0>         0.0000
     18 P1         45.8246   -8.2579   29.9263 P.3       1 <0>         0.0000
     19 H1         50.6799   -7.3386   30.6126 H         1 <0>         0.0000
     20 H2         50.8661  -11.5494   29.6961 H         1 <0>         0.0000
     21 H3         48.2299   -7.3959   30.3566 H         1 <0>         0.0000
     22 H4         48.4161  -11.5980   29.4422 H         1 <0>         0.0000
     23 H5         46.8512   -7.9918   34.0002 H         1 <0>         0.0000
     24 H6         45.1213   -7.5730   34.0158 H         1 <0>         0.0000
     25 H7         45.6388   -9.1529   34.5914 H         1 <0>         0.0000
     26 H8         45.6693   -9.5401   27.5462 H         1 <0>         0.0000
     27 H9         44.7526  -10.9510   28.1269 H         1 <0>         0.0000
     28 H10        44.2438  -10.1281   26.6576 H         1 <0>         0.0000
     29 H11        44.6771   -9.3256   32.2930 H         1 <0>         0.0000
     30 H12        46.4098   -9.7447   32.2725 H         1 <0>         0.0000
     31 H13        42.7785   -9.4890   28.5763 H         1 <0>         0.0000
     32 H14        43.6954   -8.0734   27.9988 H         1 <0>         0.0000
@<TRIPOS>BOND
     1    1    3 ar
     2    1    5 ar
     3    2    4 ar
     4    2    5 ar
     5    3    6 ar
     6    4    6 ar
     7    5   11 1
     8    6   15 1
     9    7    9 1
    10    8   10 1
    11    9   16 1
    12   10   17 1
    13   11   12 1
    14   11   13 2
    15   14   18 2
    16   15   18 1
    17   16   18 1
    18   17   18 1
    19    1   19 1
    20    2   20 1
    21    3   21 1
    22    4   22 1
    23    7   23 1
    24    7   24 1
    25    7   25 1
    26    8   26 1
    27    8   27 1
    28    8   28 1
    29    9   29 1
    30    9   30 1
    31   10   31 1
    32   10   32 1
@<TRIPOS>MOLECULE
*****
   32    32     0     0     0
SMALL
NO_CHARGES

@<TRIPOS>ATOM
      1 C1         50.7871   -8.5020   30.5212 C.ar      1 <0>         0.0000
      2 C2         50.9435  -10.8313   29.8987 C.ar      1 <0>         0.0000
      3 C3         49.4271   -8.5106   30.2116 C.ar      1 <0>         0.0000
      4 C4         49.5835  -10.8397   29.5891 C.ar      1 <0>         0.0000
      5 C5         51.5454   -9.6624   30.3647 C.ar      1 <0>         0.0000
      6 C6         48.8253   -9.6793   29.7456 C.ar      1 <0>         0.0000
      7 C7         46.2600   -8.6185   34.0678 C.3       1 <0>         0.0000
      8 C8         44.6318   -9.0453   27.6415 C.3       1 <0>         0.0000
      9 C9         45.7716   -8.3460   32.6610 C.3       1 <0>         0.0000
     10 C10        44.7038  -10.1577   28.6657 C.3       1 <0>         0.0000
     11 N1         52.9300   -9.6540   30.6796 N.pl3     1 <0>         0.0000
     12 O1         53.4521   -8.5921   31.0972 O.3       1 <0>         0.0000
     13 O2         53.5937  -10.7085   30.5312 O.2       1 <0>         0.0000
     14 O3         46.3028   -7.3497   29.6514 O.2       1 <0>         0.0000
     15 O4         47.4908   -9.6878   29.4420 O.3       1 <0>         0.0000
     16 O5         46.6794   -8.9218   31.7376 O.3       1 <0>         0.0000
     17 O6         44.9994   -9.5988   29.9343 O.3       1 <0>         0.0000
     18 P1         46.3725   -8.7643   30.1538 P.3       1 <0>         0.0000
     19 H1         51.2438   -7.5844   30.8839 H         1 <0>         0.0000
     20 H2         51.5227  -11.7426   29.7716 H         1 <0>         0.0000
     21 H3         48.8417   -7.6036   30.3359 H         1 <0>         0.0000
     22 H4         49.1203  -11.7532   29.2262 H         1 <0>         0.0000
     23 H5         46.3176   -9.6936   34.2593 H         1 <0>         0.0000
     24 H6         47.2499   -8.1779   34.2249 H         1 <0>         0.0000
     25 H7         45.5887   -8.1639   34.8040 H         1 <0>         0.0000
     26 H8         43.8469   -8.3286   27.8984 H         1 <0>         0.0000
     27 H9         45.5879   -8.5154   27.5792 H         1 <0>         0.0000
     28 H10        44.4273   -9.4510   26.6451 H         1 <0>         0.0000
     29 H11        45.7163   -7.2691   32.4759 H         1 <0>         0.0000
     30 H12        44.7829   -8.7876   32.5054 H         1 <0>         0.0000
     31 H13        45.4908  -10.8710   28.4029 H         1 <0>         0.0000
     32 H14        43.7476  -10.6857   28.7272 H         1 <0>         0.0000
@<TRIPOS>BOND
     1    1    3 ar
     2    1    5 ar
     3    2    4 ar
     4    2    5 ar
     5    3    6 ar
     6    4    6 ar
     7    5   11 1
     8    6   15 1
     9    7    9 1
    10    8   10 1
    11    9   16 1
    12   10   17 1
    13   11   12 1
    14   11   13 2
    15   14   18 2
    16   15   18 1
    17   16   18 1
    18   17   18 1
    19    1   19 1
    20    2   20 1
    21    3   21 1
    22    4   22 1
    23    7   23 1
    24    7   24 1
    25    7   25 1
    26    8   26 1
    27    8   27 1
    28    8   28 1
    29    9   29 1
    30    9   30 1
    31   10   31 1
    32   10   32 1
@<TRIPOS>MOLECULE
*****
   32    32     0     0     0
SMALL
NO_CHARGES

@<TRIPOS>ATOM
      1 C1         50.7864   -8.2196   29.9100 C.ar      1 <0>         0.0000
      2 C2         51.1798  -10.5462   29.3914 C.ar      1 <0>         0.0000
      3 C3         49.4118   -8.4557   29.9264 C.ar      1 <0>         0.0000
      4 C4         49.8053  -10.7824   29.4078 C.ar      1 <0>         0.0000
      5 C5         51.6705   -9.2649   29.6424 C.ar      1 <0>         0.0000
      6 C6         48.9212   -9.7370   29.6754 C.ar      1 <0>         0.0000
      7 C7         45.3279   -8.2299   33.6910 C.3       1 <0>         0.0000
      8 C8         44.9852   -8.5539   27.3024 C.3       1 <0>         0.0000
      9 C9         45.2683   -8.0751   32.1863 C.3       1 <0>         0.0000
     10 C10        44.9044   -9.8427   28.0925 C.3       1 <0>         0.0000
     11 N1         53.0699   -9.0247   29.6254 N.pl3     1 <0>         0.0000
     12 O1         53.4907   -7.8648   29.8536 O.3       1 <0>         0.0000
     13 O2         53.8477   -9.9790   29.3821 O.2       1 <0>         0.0000
     14 O3         46.7025   -7.5072   29.3662 O.2       1 <0>         0.0000
     15 O4         47.5724   -9.9688   29.6917 O.3       1 <0>         0.0000
     16 O5         46.2991   -8.8518   31.6012 O.3       1 <0>         0.0000
     17 O6         45.0756   -9.5518   29.4691 O.3       1 <0>         0.0000
     18 P1         46.4437   -8.8513   29.9867 P.3       1 <0>         0.0000
     19 H1         51.1556   -7.2162   30.1076 H         1 <0>         0.0000
     20 H2         51.8576  -11.3699   29.1810 H         1 <0>         0.0000
     21 H3         48.7281   -7.6375   30.1359 H         1 <0>         0.0000
     22 H4         49.4291  -11.7826   29.2112 H         1 <0>         0.0000
     23 H5         45.1856   -9.2745   33.9817 H         1 <0>         0.0000
     24 H6         46.2925   -7.8839   34.0768 H         1 <0>         0.0000
     25 H7         44.5556   -7.6209   34.1724 H         1 <0>         0.0000
     26 H8         44.2017   -7.8567   27.6118 H         1 <0>         0.0000
     27 H9         45.9600   -8.0754   27.4431 H         1 <0>         0.0000
     28 H10        44.8794   -8.7512   26.2305 H         1 <0>         0.0000
     29 H11        45.4114   -7.0283   31.9023 H         1 <0>         0.0000
     30 H12        44.3044   -8.4220   31.8025 H         1 <0>         0.0000
     31 H13        45.6906  -10.5355   27.7783 H         1 <0>         0.0000
     32 H14        43.9296  -10.3190   27.9515 H         1 <0>         0.0000
@<TRIPOS>BOND
     1    1    3 ar
     2    1    5 ar
     3    2    4 ar
     4    2    5 ar
     5    3    6 ar
     6    4    6 ar
     7    5   11 1
     8    6   15 1
     9    7    9 1
    10    8   10 1
    11    9   16 1
    12   10   17 1
    13   11   12 1
    14   11   13 2
    15   14   18 2
    16   15   18 1
    17   16   18 1
    18   17   18 1
    19    1   19 1
    20    2   20 1
    21    3   21 1
    22    4   22 1
    23    7   23 1
    24    7   24 1
    25    7   25 1
    26    8   26 1
    27    8   27 1
    28    8   28 1
    29    9   29 1
    30    9   30 1
    31   10   31 1
    32   10   32 1
@<TRIPOS>MOLECULE
*****
   32    32     0     0     0
SMALL
NO_CHARGES

@<TRIPOS>ATOM
      1 C1         50.4842   -8.4083   29.7647 C.ar      1 <0>         0.0000
      2 C2         50.8651  -10.7344   29.2345 C.ar      1 <0>         0.0000
      3 C3         49.1107   -8.6455   29.8185 C.ar      1 <0>         0.0000
      4 C4         49.4917  -10.9716   29.2882 C.ar      1 <0>         0.0000
      5 C5         51.3614   -9.4528   29.4726 C.ar      1 <0>         0.0000
      6 C6         48.6145   -9.9271   29.5804 C.ar      1 <0>         0.0000
      7 C7         45.1309   -8.4246   33.6933 C.3       1 <0>         0.0000
      8 C8         44.6143   -8.7458   27.3162 C.3       1 <0>         0.0000
      9 C9         45.0301   -8.2692   32.1908 C.3       1 <0>         0.0000
     10 C10        44.5560  -10.0351   28.1075 C.3       1 <0>         0.0000
     11 N1         52.7596   -9.2116   29.4175 N.pl3     1 <0>         0.0000
     12 O1         53.1857   -8.0514   29.6348 O.3       1 <0>         0.0000
     13 O2         53.5312  -10.1651   29.1526 O.2       1 <0>         0.0000
     14 O3         46.3864   -7.6989   29.3329 O.2       1 <0>         0.0000
     15 O4         47.2668  -10.1599   29.6333 O.3       1 <0>         0.0000
     16 O5         46.0452   -9.0448   31.5774 O.3       1 <0>         0.0000
     17 O6         44.7645   -9.7447   29.4791 O.3       1 <0>         0.0000
     18 P1         46.1456   -9.0434   29.9596 P.3       1 <0>         0.0000
     19 H1         50.8579   -7.4048   29.9528 H         1 <0>         0.0000
     20 H2         51.5375  -11.5575   29.0052 H         1 <0>         0.0000
     21 H3         48.4324   -7.8280   30.0470 H         1 <0>         0.0000
     22 H4         49.1110  -11.9720   29.1014 H         1 <0>         0.0000
     23 H5         44.9973   -9.4695   33.9872 H         1 <0>         0.0000
     24 H6         46.1053   -8.0781   34.0527 H         1 <0>         0.0000
     25 H7         44.3715   -7.8165   34.1958 H         1 <0>         0.0000
     26 H8         43.8390   -8.0494   27.6472 H         1 <0>         0.0000
     27 H9         45.5922   -8.2666   27.4305 H         1 <0>         0.0000
     28 H10        44.4794   -8.9427   26.2475 H         1 <0>         0.0000
     29 H11        45.1646   -7.2221   31.9035 H         1 <0>         0.0000
     30 H12        44.0564   -8.6167   31.8332 H         1 <0>         0.0000
     31 H13        45.3339  -10.7271   27.7716 H         1 <0>         0.0000
     32 H14        43.5781  -10.5120   27.9930 H         1 <0>         0.0000
@<TRIPOS>BOND
     1    1    3 ar
     2    1    5 ar
     3    2    4 ar
     4    2    5 ar
     5    3    6 ar
     6    4    6 ar
     7    5   11 1
     8    6   15 1
     9    7    9 1
    10    8   10 1
    11    9   16 1
    12   10   17 1
    13   11   12 1
    14   11   13 2
    15   14   18 2
    16   15   18 1
    17   16   18 1
    18   17   18 1
    19    1   19 1
    20    2   20 1
    21    3   21 1
    22    4   22 1
    23    7   23 1
    24    7   24 1
    25    7   25 1
    26    8   26 1
    27    8   27 1
    28    8   28 1
    29    9   29 1
    30    9   30 1
    31   10   31 1
    32   10   32 1
@<TRIPOS>MOLECULE
*****
   32    32     0     0     0
SMALL
NO_CHARGES

@<TRIPOS>ATOM
      1 C1         50.8309   -9.6130   29.7770 C.ar      1 <0>         0.0000
      2 C2         50.6890  -11.9710   29.2702 C.ar      1 <0>         0.0000
      3 C3         49.4388   -9.5397   29.8254 C.ar      1 <0>         0.0000
      4 C4         49.2970  -11.8977   29.3187 C.ar      1 <0>         0.0000
      5 C5         51.4560  -10.8287   29.4993 C.ar      1 <0>         0.0000
      6 C6         48.6719  -10.6820   29.5964 C.ar      1 <0>         0.0000
      7 C7         45.5940   -8.4037   33.6762 C.3       1 <0>         0.0000
      8 C8         45.0401   -8.6675   27.2996 C.3       1 <0>         0.0000
      9 C9         45.5351   -8.2451   32.1718 C.3       1 <0>         0.0000
     10 C10        44.6952   -9.9037   28.1024 C.3       1 <0>         0.0000
     11 N1         52.8731  -10.9036   29.4496 N.pl3     1 <0>         0.0000
     12 O1         53.5448   -9.8645   29.6585 O.3       1 <0>         0.0000
     13 O2         53.4153  -12.0070   29.1978 O.2       1 <0>         0.0000
     14 O3         46.9934   -8.0184   29.3162 O.2       1 <0>         0.0000
     15 O4         47.3059  -10.6100   29.6441 O.3       1 <0>         0.0000
     16 O5         46.3552   -9.2324   31.5711 O.3       1 <0>         0.0000
     17 O6         44.9583   -9.6528   29.4724 O.3       1 <0>         0.0000
     18 P1         46.4588   -9.2698   29.9539 P.3       1 <0>         0.0000
     19 H1         51.4169   -8.7153   29.9578 H         1 <0>         0.0000
     20 H2         51.1632  -12.9248   29.0522 H         1 <0>         0.0000
     21 H3         48.9576   -8.5900   30.0426 H         1 <0>         0.0000
     22 H4         48.7049  -12.7909   29.1390 H         1 <0>         0.0000
     23 H5         45.2314   -9.3900   33.9790 H         1 <0>         0.0000
     24 H6         46.6197   -8.2779   34.0378 H         1 <0>         0.0000
     25 H7         44.9865   -7.6374   34.1689 H         1 <0>         0.0000
     26 H8         44.4372   -7.8133   27.6199 H         1 <0>         0.0000
     27 H9         46.0995   -8.4156   27.4148 H         1 <0>         0.0000
     28 H10        44.8684   -8.8405   26.2320 H         1 <0>         0.0000
     29 H11        45.8991   -7.2568   31.8756 H         1 <0>         0.0000
     30 H12        44.5097   -8.3720   31.8121 H         1 <0>         0.0000
     31 H13        45.3016  -10.7542   27.7772 H         1 <0>         0.0000
     32 H14        43.6362  -10.1535   27.9869 H         1 <0>         0.0000
@<TRIPOS>BOND
     1    1    3 ar
     2    1    5 ar
     3    2    4 ar
     4    2    5 ar
     5    3    6 ar
     6    4    6 ar
     7    5   11 1
     8    6   15 1
     9    7    9 1
    10    8   10 1
    11    9   16 1
    12   10   17 1
    13   11   12 1
    14   11   13 2
    15   14   18 2
    16   15   18 1
    17   16   18 1
    18   17   18 1
    19    1   19 1
    20    2   20 1
    21    3   21 1
    22    4   22 1
    23    7   23 1
    24    7   24 1
    25    7   25 1
    26    8   26 1
    27    8   27 1
    28    8   28 1
    29    9   29 1
    30    9   30 1
    31   10   31 1
    32   10   32 1
@<TRIPOS>MOLECULE
*****
   32    32     0     0     0
SMALL
NO_CHARGES

@<TRIPOS>ATOM
      1 C1         50.1713   -7.8207   30.9294 C.ar      1 <0>         0.0000
      2 C2         50.7987   -9.6000   29.4204 C.ar      1 <0>         0.0000
      3 C3         48.8260   -8.1412   30.7481 C.ar      1 <0>         0.0000
      4 C4         49.4534   -9.9207   29.2392 C.ar      1 <0>         0.0000
      5 C5         51.1577   -8.5500   30.2656 C.ar      1 <0>         0.0000
      6 C6         48.4670   -9.1912   29.9030 C.ar      1 <0>         0.0000
      7 C7         43.8347   -8.5570   32.6431 C.3       1 <0>         0.0000
      8 C8         45.0010   -9.5191   27.6038 C.3       1 <0>         0.0000
      9 C9         45.3063   -8.3692   32.9448 C.3       1 <0>         0.0000
     10 C10        43.9944   -9.3231   28.7173 C.3       1 <0>         0.0000
     11 N1         52.5273   -8.2238   30.4497 N.pl3     1 <0>         0.0000
     12 O1         52.8292   -7.2756   31.2141 O.3       1 <0>         0.0000
     13 O2         53.3987   -8.8924   29.8427 O.2       1 <0>         0.0000
     14 O3         45.8028   -7.2784   30.1173 O.2       1 <0>         0.0000
     15 O4         47.1469   -9.5058   29.7252 O.3       1 <0>         0.0000
     16 O5         46.0681   -9.1053   32.0035 O.3       1 <0>         0.0000
     17 O6         44.6184   -9.6043   29.9585 O.3       1 <0>         0.0000
     18 P1         45.9095   -8.7442   30.4314 P.3       1 <0>         0.0000
     19 H1         50.4375   -7.0001   31.5912 H         1 <0>         0.0000
     20 H2         51.5572  -10.1765   28.8963 H         1 <0>         0.0000
     21 H3         48.0621   -7.5696   31.2682 H         1 <0>         0.0000
     22 H4         49.1799  -10.7395   28.5792 H         1 <0>         0.0000
     23 H5         43.5929   -8.1959   31.6397 H         1 <0>         0.0000
     24 H6         43.5578   -9.6140   32.7147 H         1 <0>         0.0000
     25 H7         43.2197   -8.0170   33.3707 H         1 <0>         0.0000
     26 H8         45.8541   -8.8459   27.7259 H         1 <0>         0.0000
     27 H9         45.3647  -10.5518   27.5896 H         1 <0>         0.0000
     28 H10        44.5393   -9.3309   26.6288 H         1 <0>         0.0000
     29 H11        45.5414   -8.7324   33.9497 H         1 <0>         0.0000
     30 H12        45.5814   -7.3128   32.8720 H         1 <0>         0.0000
     31 H13        43.1439   -9.9992   28.5893 H         1 <0>         0.0000
     32 H14        43.6327   -8.2906   28.7306 H         1 <0>         0.0000
@<TRIPOS>BOND
     1    1    3 ar
     2    1    5 ar
     3    2    4 ar
     4    2    5 ar
     5    3    6 ar
     6    4    6 ar
     7    5   11 1
     8    6   15 1
     9    7    9 1
    10    8   10 1
    11    9   16 1
    12   10   17 1
    13   11   12 1
    14   11   13 2
    15   14   18 2
    16   15   18 1
    17   16   18 1
    18   17   18 1
    19    1   19 1
    20    2   20 1
    21    3   21 1
    22    4   22 1
    23    7   23 1
    24    7   24 1
    25    7   25 1
    26    8   26 1
    27    8   27 1
    28    8   28 1
    29    9   29 1
    30    9   30 1
    31   10   31 1
    32   10   32 1
@<TRIPOS>MOLECULE
*****
   32    32     0     0     0
SMALL
NO_CHARGES

@<TRIPOS>ATOM
      1 C1         50.7561   -8.0845   30.6658 C.ar      1 <0>         0.0000
      2 C2         51.0130   -9.8862   29.0768 C.ar      1 <0>         0.0000
      3 C3         49.3758   -8.2853   30.6703 C.ar      1 <0>         0.0000
      4 C4         49.6327  -10.0871   29.0814 C.ar      1 <0>         0.0000
      5 C5         51.5747   -8.8849   29.8690 C.ar      1 <0>         0.0000
      6 C6         48.8141   -9.2866   29.8781 C.ar      1 <0>         0.0000
      7 C7         44.6742   -8.3019   33.2338 C.3       1 <0>         0.0000
      8 C8         45.0505   -9.2778   28.0775 C.3       1 <0>         0.0000
      9 C9         46.1839   -8.2462   33.3305 C.3       1 <0>         0.0000
     10 C10        44.2270   -9.0144   29.3201 C.3       1 <0>         0.0000
     11 N1         52.9798   -8.6806   29.8639 N.pl3     1 <0>         0.0000
     12 O1         53.4653   -7.7745   30.5836 O.3       1 <0>         0.0000
     13 O2         53.6981   -9.4115   29.1395 O.2       1 <0>         0.0000
     14 O3         46.3817   -7.1559   30.4664 O.2       1 <0>         0.0000
     15 O4         47.4597   -9.4837   29.8828 O.3       1 <0>         0.0000
     16 O5         46.7424   -9.0295   32.2898 O.3       1 <0>         0.0000
     17 O6         44.9882   -9.3685   30.4621 O.3       1 <0>         0.0000
     18 P1         46.4020   -8.6303   30.7562 P.3       1 <0>         0.0000
     19 H1         51.1811   -7.3008   31.2881 H         1 <0>         0.0000
     20 H2         51.6393  -10.5170   28.4505 H         1 <0>         0.0000
     21 H3         48.7433   -7.6588   31.2934 H         1 <0>         0.0000
     22 H4         49.2009  -10.8684   28.4619 H         1 <0>         0.0000
     23 H5         44.3296   -7.9049   32.2749 H         1 <0>         0.0000
     24 H6         44.3185   -9.3323   33.3382 H         1 <0>         0.0000
     25 H7         44.2142   -7.7231   34.0416 H         1 <0>         0.0000
     26 H8         45.9678   -8.6824   28.0838 H         1 <0>         0.0000
     27 H9         45.3172  -10.3375   28.0088 H         1 <0>         0.0000
     28 H10        44.4778   -9.0346   27.1764 H         1 <0>         0.0000
     29 H11        46.5219   -8.6447   34.2917 H         1 <0>         0.0000
     30 H12        46.5376   -7.2163   33.2251 H         1 <0>         0.0000
     31 H13        43.3112   -9.6128   29.3076 H         1 <0>         0.0000
     32 H14        43.9620   -7.9550   29.3877 H         1 <0>         0.0000
@<TRIPOS>BOND
     1    1    3 ar
     2    1    5 ar
     3    2    4 ar
     4    2    5 ar
     5    3    6 ar
     6    4    6 ar
     7    5   11 1
     8    6   15 1
     9    7    9 1
    10    8   10 1
    11    9   16 1
    12   10   17 1
    13   11   12 1
    14   11   13 2
    15   14   18 2
    16   15   18 1
    17   16   18 1
    18   17   18 1
    19    1   19 1
    20    2   20 1
    21    3   21 1
    22    4   22 1
    23    7   23 1
    24    7   24 1
    25    7   25 1
    26    8   26 1
    27    8   27 1
    28    8   28 1
    29    9   29 1
    30    9   30 1
    31   10   31 1
    32   10   32 1
@<TRIPOS>MOLECULE
*****
   32    32     0     0     0
SMALL
NO_CHARGES

@<TRIPOS>ATOM
      1 C1         50.7186   -8.5530   30.2668 C.ar      1 <0>         0.0000
      2 C2         50.8078  -10.3825   28.6915 C.ar      1 <0>         0.0000
      3 C3         49.3289   -8.6618   30.3146 C.ar      1 <0>         0.0000
      4 C4         49.4180  -10.4915   28.7394 C.ar      1 <0>         0.0000
      5 C5         51.4582   -9.4133   29.4552 C.ar      1 <0>         0.0000
      6 C6         48.6786   -9.6311   29.5509 C.ar      1 <0>         0.0000
      7 C7         44.7164   -8.3428   33.0166 C.3       1 <0>         0.0000
      8 C8         44.8708   -9.3898   27.8628 C.3       1 <0>         0.0000
      9 C9         46.2288   -8.3864   33.0677 C.3       1 <0>         0.0000
     10 C10        44.1046   -9.0608   29.1262 C.3       1 <0>         0.0000
     11 N1         52.8729   -9.3025   29.4061 N.pl3     1 <0>         0.0000
     12 O1         53.4386   -8.4239   30.1007 O.3       1 <0>         0.0000
     13 O2         53.5190  -10.0862   28.6691 O.2       1 <0>         0.0000
     14 O3         46.4109   -7.3384   30.1868 O.2       1 <0>         0.0000
     15 O4         47.3149   -9.7380   29.5980 O.3       1 <0>         0.0000
     16 O5         46.7025   -9.2146   32.0200 O.3       1 <0>         0.0000
     17 O6         44.8751   -9.4538   30.2491 O.3       1 <0>         0.0000
     18 P1         46.3428   -8.8082   30.4927 P.3       1 <0>         0.0000
     19 H1         51.2131   -7.7933   30.8673 H         1 <0>         0.0000
     20 H2         51.3718  -11.0593   28.0542 H         1 <0>         0.0000
     21 H3         48.7583   -7.9890   30.9490 H         1 <0>         0.0000
     22 H4         48.9170  -11.2483   28.1418 H         1 <0>         0.0000
     23 H5         44.3699   -7.9329   32.0639 H         1 <0>         0.0000
     24 H6         44.2969   -9.3463   33.1432 H         1 <0>         0.0000
     25 H7         44.3204   -7.7273   33.8310 H         1 <0>         0.0000
     26 H8         45.8251   -8.8565   27.8351 H         1 <0>         0.0000
     27 H9         45.0649  -10.4655   27.7982 H         1 <0>         0.0000
     28 H10        44.2883   -9.1177   26.9764 H         1 <0>         0.0000
     29 H11        46.5688   -8.7973   34.0230 H         1 <0>         0.0000
     30 H12        46.6463   -7.3831   32.9402 H         1 <0>         0.0000
     31 H13        43.1514   -9.5973   29.1477 H         1 <0>         0.0000
     32 H14        43.9122   -7.9856   29.1896 H         1 <0>         0.0000
@<TRIPOS>BOND
     1    1    3 ar
     2    1    5 ar
     3    2    4 ar
     4    2    5 ar
     5    3    6 ar
     6    4    6 ar
     7    5   11 1
     8    6   15 1
     9    7    9 1
    10    8   10 1
    11    9   16 1
    12   10   17 1
    13   11   12 1
    14   11   13 2
    15   14   18 2
    16   15   18 1
    17   16   18 1
    18   17   18 1
    19    1   19 1
    20    2   20 1
    21    3   21 1
    22    4   22 1
    23    7   23 1
    24    7   24 1
    25    7   25 1
    26    8   26 1
    27    8   27 1
    28    8   28 1
    29    9   29 1
    30    9   30 1
    31   10   31 1
    32   10   32 1
@<TRIPOS>MOLECULE
*****
   32    32     0     0     0
SMALL
NO_CHARGES

@<TRIPOS>ATOM
      1 C1         51.0506  -10.4169   29.6275 C.ar      1 <0>         0.0000
      2 C2         50.2809  -12.6594   29.1628 C.ar      1 <0>         0.0000
      3 C3         49.7415   -9.9465   29.5264 C.ar      1 <0>         0.0000
      4 C4         48.9717  -12.1889   29.0616 C.ar      1 <0>         0.0000
      5 C5         51.3204  -11.7734   29.4457 C.ar      1 <0>         0.0000
      6 C6         48.7020  -10.8324   29.2434 C.ar      1 <0>         0.0000
      7 C7         47.4222   -8.8588   33.8101 C.3       1 <0>         0.0000
      8 C8         44.7041   -8.7834   27.7490 C.3       1 <0>         0.0000
      9 C9         46.8328   -8.4535   32.4759 C.3       1 <0>         0.0000
     10 C10        44.5535   -9.8320   28.8305 C.3       1 <0>         0.0000
     11 N1         52.6531  -12.2526   29.5485 N.pl3     1 <0>         0.0000
     12 O1         53.5738  -11.4391   29.8036 O.3       1 <0>         0.0000
     13 O2         52.8738  -13.4764   29.3809 O.2       1 <0>         0.0000
     14 O3         47.1698   -7.7601   29.3553 O.2       1 <0>         0.0000
     15 O4         47.4173  -10.3708   29.1442 O.3       1 <0>         0.0000
     16 O5         47.3166   -9.3293   31.4723 O.3       1 <0>         0.0000
     17 O6         45.2314   -9.3941   29.9957 O.3       1 <0>         0.0000
     18 P1         46.8253   -9.0988   29.9450 P.3       1 <0>         0.0000
     19 H1         51.8517   -9.7158   29.8489 H         1 <0>         0.0000
     20 H2         50.4770  -13.7190   29.0183 H         1 <0>         0.0000
     21 H3         49.5376   -8.8887   29.6693 H         1 <0>         0.0000
     22 H4         48.1661  -12.8838   28.8406 H         1 <0>         0.0000
     23 H5         47.1330   -9.8810   34.0700 H         1 <0>         0.0000
     24 H6         48.5150   -8.7964   33.7843 H         1 <0>         0.0000
     25 H7         47.0834   -8.1835   34.6027 H         1 <0>         0.0000
     26 H8         44.2720   -7.8304   28.0667 H         1 <0>         0.0000
     27 H9         45.7603   -8.6291   27.5054 H         1 <0>         0.0000
     28 H10        44.2087   -9.1061   26.8272 H         1 <0>         0.0000
     29 H11        47.1259   -7.4304   32.2219 H         1 <0>         0.0000
     30 H12        45.7410   -8.5172   32.5031 H         1 <0>         0.0000
     31 H13        44.9877  -10.7826   28.5065 H         1 <0>         0.0000
     32 H14        43.4977   -9.9844   29.0732 H         1 <0>         0.0000
@<TRIPOS>BOND
     1    1    3 ar
     2    1    5 ar
     3    2    4 ar
     4    2    5 ar
     5    3    6 ar
     6    4    6 ar
     7    5   11 1
     8    6   15 1
     9    7    9 1
    10    8   10 1
    11    9   16 1
    12   10   17 1
    13   11   12 1
    14   11   13 2
    15   14   18 2
    16   15   18 1
    17   16   18 1
    18   17   18 1
    19    1   19 1
    20    2   20 1
    21    3   21 1
    22    4   22 1
    23    7   23 1
    24    7   24 1
    25    7   25 1
    26    8   26 1
    27    8   27 1
    28    8   28 1
    29    9   29 1
    30    9   30 1
    31   10   31 1
    32   10   32 1
@<TRIPOS>MOLECULE
*****
   32    32     0     0     0
SMALL
NO_CHARGES

@<TRIPOS>ATOM
      1 C1         49.1229  -12.4311   28.6373 C.ar      1 <0>         0.0000
      2 C2         51.1675  -11.1751   28.9188 C.ar      1 <0>         0.0000
      3 C3         48.4088  -11.4089   29.2622 C.ar      1 <0>         0.0000
      4 C4         50.4533  -10.1528   29.5437 C.ar      1 <0>         0.0000
      5 C5         50.5023  -12.3143   28.4656 C.ar      1 <0>         0.0000
      6 C6         49.0740  -10.2697   29.7155 C.ar      1 <0>         0.0000
      7 C7         44.9852   -8.2780   32.9002 C.3       1 <0>         0.0000
      8 C8         44.4313  -10.4722   27.7084 C.3       1 <0>         0.0000
      9 C9         45.8113   -8.9451   31.8212 C.3       1 <0>         0.0000
     10 C10        45.0506   -9.2260   28.3042 C.3       1 <0>         0.0000
     11 N1         51.2295  -13.3549   27.8295 N.pl3     1 <0>         0.0000
     12 O1         50.6123  -14.3713   27.4292 O.3       1 <0>         0.0000
     13 O2         52.4698  -13.2297   27.6855 O.2       1 <0>         0.0000
     14 O3         47.6047   -7.3265   28.7265 O.2       1 <0>         0.0000
     15 O4         48.3732   -9.2667   30.3287 O.3       1 <0>         0.0000
     16 O5         46.2586   -7.9593   30.9067 O.3       1 <0>         0.0000
     17 O6         46.2781   -9.5713   28.9233 O.3       1 <0>         0.0000
     18 P1         47.1698   -8.4286   29.6510 P.3       1 <0>         0.0000
     19 H1         48.5922  -13.3136   28.2884 H         1 <0>         0.0000
     20 H2         52.2422  -11.0712   28.7919 H         1 <0>         0.0000
     21 H3         47.3344  -11.5056   29.3929 H         1 <0>         0.0000
     22 H4         50.9771   -9.2679   29.8950 H         1 <0>         0.0000
     23 H5         45.5792   -7.5397   33.4460 H         1 <0>         0.0000
     24 H6         44.1131   -7.7787   32.4655 H         1 <0>         0.0000
     25 H7         44.6058   -9.0206   33.6101 H         1 <0>         0.0000
     26 H8         45.0899  -10.9136   26.9553 H         1 <0>         0.0000
     27 H9         44.2362  -11.2166   28.4874 H         1 <0>         0.0000
     28 H10        43.4680  -10.2394   27.2425 H         1 <0>         0.0000
     29 H11        45.2113   -9.6823   31.2792 H         1 <0>         0.0000
     30 H12        46.6826   -9.4428   32.2572 H         1 <0>         0.0000
     31 H13        44.3869   -8.7896   29.0565 H         1 <0>         0.0000
     32 H14        45.2456   -8.4837   27.5245 H         1 <0>         0.0000
@<TRIPOS>BOND
     1    1    3 ar
     2    1    5 ar
     3    2    4 ar
     4    2    5 ar
     5    3    6 ar
     6    4    6 ar
     7    5   11 1
     8    6   15 1
     9    7    9 1
    10    8   10 1
    11    9   16 1
    12   10   17 1
    13   11   12 1
    14   11   13 2
    15   14   18 2
    16   15   18 1
    17   16   18 1
    18   17   18 1
    19    1   19 1
    20    2   20 1
    21    3   21 1
    22    4   22 1
    23    7   23 1
    24    7   24 1
    25    7   25 1
    26    8   26 1
    27    8   27 1
    28    8   28 1
    29    9   29 1
    30    9   30 1
    31   10   31 1
    32   10   32 1
@<TRIPOS>MOLECULE
*****
   32    32     0     0     0
SMALL
NO_CHARGES

@<TRIPOS>ATOM
      1 C1         50.7041   -9.9701   29.5847 C.ar      1 <0>         0.0000
      2 C2         50.2403  -12.2612   28.9740 C.ar      1 <0>         0.0000
      3 C3         49.3358   -9.7217   29.6918 C.ar      1 <0>         0.0000
      4 C4         48.8720  -12.0128   29.0812 C.ar      1 <0>         0.0000
      5 C5         51.1565  -11.2399   29.2257 C.ar      1 <0>         0.0000
      6 C6         48.4198  -10.7430   29.4402 C.ar      1 <0>         0.0000
      7 C7         45.8019   -8.3028   33.7415 C.3       1 <0>         0.0000
      8 C8         45.0057   -8.1641   27.3866 C.3       1 <0>         0.0000
      9 C9         45.7139   -8.0606   32.2497 C.3       1 <0>         0.0000
     10 C10        44.5302   -9.3857   28.1438 C.3       1 <0>         0.0000
     11 N1         52.5493  -11.4931   29.1162 N.pl3     1 <0>         0.0000
     12 O1         53.3569  -10.5607   29.3467 O.3       1 <0>         0.0000
     13 O2         52.9349  -12.6424   28.7916 O.2       1 <0>         0.0000
     14 O3         47.0931   -7.8754   29.3522 O.2       1 <0>         0.0000
     15 O4         47.0771  -10.4992   29.5456 O.3       1 <0>         0.0000
     16 O5         46.3783   -9.1125   31.5713 O.3       1 <0>         0.0000
     17 O6         44.8693   -9.2415   29.5124 O.3       1 <0>         0.0000
     18 P1         46.4221   -9.0792   29.9513 P.3       1 <0>         0.0000
     19 H1         51.4075   -9.1654   29.7839 H         1 <0>         0.0000
     20 H2         50.5790  -13.2554   28.6929 H         1 <0>         0.0000
     21 H3         48.9896   -8.7306   29.9723 H         1 <0>         0.0000
     22 H4         48.1632  -12.8123   28.8835 H         1 <0>         0.0000
     23 H5         45.3246   -9.2488   34.0119 H         1 <0>         0.0000
     24 H6         46.8468   -8.3282   34.0675 H         1 <0>         0.0000
     25 H7         45.3159   -7.4914   34.2934 H         1 <0>         0.0000
     26 H8         44.5300   -7.2574   27.7704 H         1 <0>         0.0000
     27 H9         46.0922   -8.0562   27.4713 H         1 <0>         0.0000
     28 H10        44.7775   -8.2583   26.3198 H         1 <0>         0.0000
     29 H11        46.1931   -7.1130   31.9860 H         1 <0>         0.0000
     30 H12        44.6693   -8.0363   31.9256 H         1 <0>         0.0000
     31 H13        45.0098  -10.2889   27.7551 H         1 <0>         0.0000
     32 H14        43.4446   -9.4914   28.0589 H         1 <0>         0.0000
@<TRIPOS>BOND
     1    1    3 ar
     2    1    5 ar
     3    2    4 ar
     4    2    5 ar
     5    3    6 ar
     6    4    6 ar
     7    5   11 1
     8    6   15 1
     9    7    9 1
    10    8   10 1
    11    9   16 1
    12   10   17 1
    13   11   12 1
    14   11   13 2
    15   14   18 2
    16   15   18 1
    17   16   18 1
    18   17   18 1
    19    1   19 1
    20    2   20 1
    21    3   21 1
    22    4   22 1
    23    7   23 1
    24    7   24 1
    25    7   25 1
    26    8   26 1
    27    8   27 1
    28    8   28 1
    29    9   29 1
    30    9   30 1
    31   10   31 1
    32   10   32 1
@<TRIPOS>MOLECULE
*****
   32    32     0     0     0
SMALL
NO_CHARGES

@<TRIPOS>ATOM
      1 C1         50.9169   -9.5777   29.9230 C.ar      1 <0>         0.0000
      2 C2         50.6910  -11.6365   28.6791 C.ar      1 <0>         0.0000
      3 C3         49.5284   -9.4792   30.0121 C.ar      1 <0>         0.0000
      4 C4         49.3025  -11.5381   28.7683 C.ar      1 <0>         0.0000
      5 C5         51.4983  -10.6563   29.2565 C.ar      1 <0>         0.0000
      6 C6         48.7212  -10.4594   29.4347 C.ar      1 <0>         0.0000
      7 C7         45.1162   -8.0677   32.6986 C.3       1 <0>         0.0000
      8 C8         44.9170   -9.9637   27.7949 C.3       1 <0>         0.0000
      9 C9         46.6092   -8.3159   32.7308 C.3       1 <0>         0.0000
     10 C10        44.2548   -9.3251   28.9971 C.3       1 <0>         0.0000
     11 N1         52.9116  -10.7568   29.1654 N.pl3     1 <0>         0.0000
     12 O1         53.6199   -9.8645   29.6914 O.3       1 <0>         0.0000
     13 O2         53.4141  -11.7351   28.5610 O.2       1 <0>         0.0000
     14 O3         46.8161   -7.7954   29.7113 O.2       1 <0>         0.0000
     15 O4         47.3588  -10.3628   29.5223 O.3       1 <0>         0.0000
     16 O5         46.9223   -9.3647   31.8306 O.3       1 <0>         0.0000
     17 O6         45.0092   -9.6321   30.1570 O.3       1 <0>         0.0000
     18 P1         46.5600   -9.1696   30.2628 P.3       1 <0>         0.0000
     19 H1         51.5345   -8.8070   30.3776 H         1 <0>         0.0000
     20 H2         51.1309  -12.4823   28.1562 H         1 <0>         0.0000
     21 H3         49.0813   -8.6367   30.5329 H         1 <0>         0.0000
     22 H4         48.6789  -12.3046   28.3162 H         1 <0>         0.0000
     23 H5         44.7907   -7.7760   31.6962 H         1 <0>         0.0000
     24 H6         44.5689   -8.9667   33.0005 H         1 <0>         0.0000
     25 H7         44.8414   -7.2761   33.4036 H         1 <0>         0.0000
     26 H8         45.9333   -9.5829   27.6611 H         1 <0>         0.0000
     27 H9         44.9593  -11.0518   27.9102 H         1 <0>         0.0000
     28 H10        44.3417   -9.7622   26.8851 H         1 <0>         0.0000
     29 H11        46.9282   -8.6072   33.7359 H         1 <0>         0.0000
     30 H12        47.1545   -7.4170   32.4281 H         1 <0>         0.0000
     31 H13        43.2388   -9.7101   29.1252 H         1 <0>         0.0000
     32 H14        44.2140   -8.2380   28.8806 H         1 <0>         0.0000
@<TRIPOS>BOND
     1    1    3 ar
     2    1    5 ar
     3    2    4 ar
     4    2    5 ar
     5    3    6 ar
     6    4    6 ar
     7    5   11 1
     8    6   15 1
     9    7    9 1
    10    8   10 1
    11    9   16 1
    12   10   17 1
    13   11   12 1
    14   11   13 2
    15   14   18 2
    16   15   18 1
    17   16   18 1
    18   17   18 1
    19    1   19 1
    20    2   20 1
    21    3   21 1
    22    4   22 1
    23    7   23 1
    24    7   24 1
    25    7   25 1
    26    8   26 1
    27    8   27 1
    28    8   28 1
    29    9   29 1
    30    9   30 1
    31   10   31 1
    32   10   32 1
@<TRIPOS>MOLECULE
*****
   32    32     0     0     0
SMALL
NO_CHARGES

@<TRIPOS>ATOM
      1 C1         50.6298   -9.6050   29.4038 C.ar      1 <0>         0.0000
      2 C2         50.4911  -11.9591   28.8783 C.ar      1 <0>         0.0000
      3 C3         49.2373   -9.5304   29.4367 C.ar      1 <0>         0.0000
      4 C4         49.0987  -11.8845   28.9112 C.ar      1 <0>         0.0000
      5 C5         51.2567  -10.8194   29.1245 C.ar      1 <0>         0.0000
      6 C6         48.4718  -10.6700   29.1905 C.ar      1 <0>         0.0000
      7 C7         45.3494   -8.4177   33.2508 C.3       1 <0>         0.0000
      8 C8         44.8691   -8.6346   26.8664 C.3       1 <0>         0.0000
      9 C9         45.3081   -8.2482   31.7470 C.3       1 <0>         0.0000
     10 C10        44.5135   -9.8762   27.6563 C.3       1 <0>         0.0000
     11 N1         52.6742  -10.8957   29.0908 N.pl3     1 <0>         0.0000
     12 O1         53.3446   -9.8589   29.3150 O.3       1 <0>         0.0000
     13 O2         53.2180  -11.9979   28.8372 O.2       1 <0>         0.0000
     14 O3         46.7997   -8.0025   28.9103 O.2       1 <0>         0.0000
     15 O4         47.1055  -10.5968   29.2229 O.3       1 <0>         0.0000
     16 O5         46.1341   -9.2321   31.1487 O.3       1 <0>         0.0000
     17 O6         44.7611   -9.6355   29.0310 O.3       1 <0>         0.0000
     18 P1         46.2563   -9.2578   29.5326 P.3       1 <0>         0.0000
     19 H1         51.2146   -8.7093   29.5979 H         1 <0>         0.0000
     20 H2         50.9668  -12.9119   28.6589 H         1 <0>         0.0000
     21 H3         48.7547   -8.5817   29.6552 H         1 <0>         0.0000
     22 H4         48.5077  -12.7756   28.7181 H         1 <0>         0.0000
     23 H5         44.9822   -9.4058   33.5422 H         1 <0>         0.0000
     24 H6         46.3711   -8.2958   33.6251 H         1 <0>         0.0000
     25 H7         44.7371   -7.6543   33.7420 H         1 <0>         0.0000
     26 H8         44.2635   -7.7821   27.1860 H         1 <0>         0.0000
     27 H9         45.9274   -8.3848   26.9957 H         1 <0>         0.0000
     28 H10        44.7097   -8.7997   25.7957 H         1 <0>         0.0000
     29 H11        45.6766   -7.2581   31.4623 H         1 <0>         0.0000
     30 H12        44.2869   -8.3712   31.3746 H         1 <0>         0.0000
     31 H13        45.1227  -10.7251   27.3319 H         1 <0>         0.0000
     32 H14        43.4558  -10.1238   27.5267 H         1 <0>         0.0000
@<TRIPOS>BOND
     1    1    3 ar
     2    1    5 ar
     3    2    4 ar
     4    2    5 ar
     5    3    6 ar
     6    4    6 ar
     7    5   11 1
     8    6   15 1
     9    7    9 1
    10    8   10 1
    11    9   16 1
    12   10   17 1
    13   11   12 1
    14   11   13 2
    15   14   18 2
    16   15   18 1
    17   16   18 1
    18   17   18 1
    19    1   19 1
    20    2   20 1
    21    3   21 1
    22    4   22 1
    23    7   23 1
    24    7   24 1
    25    7   25 1
    26    8   26 1
    27    8   27 1
    28    8   28 1
    29    9   29 1
    30    9   30 1
    31   10   31 1
    32   10   32 1
@<TRIPOS>MOLECULE
*****
   32    32     0     0     0
SMALL
NO_CHARGES

@<TRIPOS>ATOM
      1 C1         50.5957   -8.6175   28.8988 C.ar      1 <0>         0.0000
      2 C2         50.7604  -10.7918   29.9391 C.ar      1 <0>         0.0000
      3 C3         49.2041   -8.6992   28.9485 C.ar      1 <0>         0.0000
      4 C4         49.3688  -10.8734   29.9888 C.ar      1 <0>         0.0000
      5 C5         51.3738   -9.6638   29.3941 C.ar      1 <0>         0.0000
      6 C6         48.5907   -9.8271   29.4934 C.ar      1 <0>         0.0000
      7 C7         44.6315   -8.1089   32.7708 C.3       1 <0>         0.0000
      8 C8         44.7963   -9.7119   27.7624 C.3       1 <0>         0.0000
      9 C9         46.1427   -8.1700   32.8370 C.3       1 <0>         0.0000
     10 C10        44.0288   -9.2357   28.9772 C.3       1 <0>         0.0000
     11 N1         52.7905   -9.5812   29.3435 N.pl3     1 <0>         0.0000
     12 O1         53.3226   -8.5579   28.8491 O.3       1 <0>         0.0000
     13 O2         53.4717  -10.5338   29.7942 O.2       1 <0>         0.0000
     14 O3         46.3570   -7.4442   29.8607 O.2       1 <0>         0.0000
     15 O4         47.2253   -9.9072   29.5422 O.3       1 <0>         0.0000
     16 O5         46.6085   -9.1144   31.8887 O.3       1 <0>         0.0000
     17 O6         44.7869   -9.5162   30.1414 O.3       1 <0>         0.0000
     18 P1         46.2635   -8.8708   30.3238 P.3       1 <0>         0.0000
     19 H1         51.0612   -7.7326   28.4716 H         1 <0>         0.0000
     20 H2         51.3548  -11.6148   30.3283 H         1 <0>         0.0000
     21 H3         48.6033   -7.8807   28.5613 H         1 <0>         0.0000
     22 H4         48.8968  -11.7548   30.4142 H         1 <0>         0.0000
     23 H5         44.2966   -7.7996   31.7768 H         1 <0>         0.0000
     24 H6         44.1952   -9.0860   33.0027 H         1 <0>         0.0000
     25 H7         44.2411   -7.4024   33.5108 H         1 <0>         0.0000
     26 H8         45.7592   -9.1995   27.6837 H         1 <0>         0.0000
     27 H9         44.9734  -10.7911   27.8163 H         1 <0>         0.0000
     28 H10        44.2230   -9.5287   26.8476 H         1 <0>         0.0000
     29 H11        46.4709   -8.4799   33.8336 H         1 <0>         0.0000
     30 H12        46.5770   -7.1931   32.6043 H         1 <0>         0.0000
     31 H13        43.0670   -9.7519   29.0501 H         1 <0>         0.0000
     32 H14        43.8535   -8.1572   28.9221 H         1 <0>         0.0000
@<TRIPOS>BOND
     1    1    3 ar
     2    1    5 ar
     3    2    4 ar
     4    2    5 ar
     5    3    6 ar
     6    4    6 ar
     7    5   11 1
     8    6   15 1
     9    7    9 1
    10    8   10 1
    11    9   16 1
    12   10   17 1
    13   11   12 1
    14   11   13 2
    15   14   18 2
    16   15   18 1
    17   16   18 1
    18   17   18 1
    19    1   19 1
    20    2   20 1
    21    3   21 1
    22    4   22 1
    23    7   23 1
    24    7   24 1
    25    7   25 1
    26    8   26 1
    27    8   27 1
    28    8   28 1
    29    9   29 1
    30    9   30 1
    31   10   31 1
    32   10   32 1
@<TRIPOS>MOLECULE
*****
   32    32     0     0     0
SMALL
NO_CHARGES

@<TRIPOS>ATOM
      1 C1         50.6681   -7.1624   30.9609 C.ar      1 <0>         0.0000
      2 C2         51.7347   -8.7333   29.4671 C.ar      1 <0>         0.0000
      3 C3         49.4549   -7.8310   30.7977 C.ar      1 <0>         0.0000
      4 C4         50.5214   -9.4019   29.3039 C.ar      1 <0>         0.0000
      5 C5         51.8080   -7.6136   30.2955 C.ar      1 <0>         0.0000
      6 C6         49.3815   -8.9507   29.9692 C.ar      1 <0>         0.0000
      7 C7         45.2170   -8.2965   32.7259 C.3       1 <0>         0.0000
      8 C8         43.8205   -9.1005   28.6932 C.3       1 <0>         0.0000
      9 C9         45.8952   -9.1153   31.6483 C.3       1 <0>         0.0000
     10 C10        44.7751  -10.0747   28.0363 C.3       1 <0>         0.0000
     11 N1         53.0432   -6.9331   30.4612 N.pl3     1 <0>         0.0000
     12 O1         53.0879   -5.9277   31.2109 O.3       1 <0>         0.0000
     13 O2         54.0565   -7.3553   29.8532 O.2       1 <0>         0.0000
     14 O3         47.0442   -8.0104   28.0605 O.2       1 <0>         0.0000
     15 O4         48.1910   -9.6068   29.8093 O.3       1 <0>         0.0000
     16 O5         46.1204   -8.2926   30.5166 O.3       1 <0>         0.0000
     17 O6         45.9170  -10.2296   28.8616 O.3       1 <0>         0.0000
     18 P1         46.8403   -8.9453   29.2193 P.3       1 <0>         0.0000
     19 H1         50.7116   -6.2911   31.6098 H         1 <0>         0.0000
     20 H2         52.6153   -9.0955   28.9420 H         1 <0>         0.0000
     21 H3         48.5703   -7.4749   31.3188 H         1 <0>         0.0000
     22 H4         50.4705  -10.2734   28.6568 H         1 <0>         0.0000
     23 H5         45.8437   -7.4525   33.0273 H         1 <0>         0.0000
     24 H6         44.2545   -7.9133   32.3715 H         1 <0>         0.0000
     25 H7         45.0091   -8.9139   33.6062 H         1 <0>         0.0000
     26 H8         43.4971   -9.4700   29.6704 H         1 <0>         0.0000
     27 H9         44.2960   -8.1230   28.8243 H         1 <0>         0.0000
     28 H10        42.9373   -8.9430   28.0653 H         1 <0>         0.0000
     29 H11        45.2632   -9.9576   31.3515 H         1 <0>         0.0000
     30 H12        46.8570   -9.4966   32.0039 H         1 <0>         0.0000
     31 H13        45.0946   -9.6993   27.0595 H         1 <0>         0.0000
     32 H14        44.2986  -11.0509   27.9068 H         1 <0>         0.0000
@<TRIPOS>BOND
     1    1    3 ar
     2    1    5 ar
     3    2    4 ar
     4    2    5 ar
     5    3    6 ar
     6    4    6 ar
     7    5   11 1
     8    6   15 1
     9    7    9 1
    10    8   10 1
    11    9   16 1
    12   10   17 1
    13   11   12 1
    14   11   13 2
    15   14   18 2
    16   15   18 1
    17   16   18 1
    18   17   18 1
    19    1   19 1
    20    2   20 1
    21    3   21 1
    22    4   22 1
    23    7   23 1
    24    7   24 1
    25    7   25 1
    26    8   26 1
    27    8   27 1
    28    8   28 1
    29    9   29 1
    30    9   30 1
    31   10   31 1
    32   10   32 1
@<TRIPOS>MOLECULE
*****
   32    32     0     0     0
SMALL
NO_CHARGES

@<TRIPOS>ATOM
      1 C1         50.7796   -8.4137   29.6657 C.ar      1 <0>         0.0000
      2 C2         50.7271  -10.8269   29.5607 C.ar      1 <0>         0.0000
      3 C3         49.4920   -8.4089   30.2016 C.ar      1 <0>         0.0000
      4 C4         49.4393  -10.8221   30.0965 C.ar      1 <0>         0.0000
      5 C5         51.3973   -9.6227   29.3452 C.ar      1 <0>         0.0000
      6 C6         48.8217   -9.6131   30.4169 C.ar      1 <0>         0.0000
      7 C7         45.9253   -8.5985   33.2749 C.3       1 <0>         0.0000
      8 C8         43.8335   -9.0119   28.4180 C.3       1 <0>         0.0000
      9 C9         44.7258   -8.5950   32.3514 C.3       1 <0>         0.0000
     10 C10        45.2344   -9.1797   27.8691 C.3       1 <0>         0.0000
     11 N1         52.7081   -9.6278   28.7995 N.pl3     1 <0>         0.0000
     12 O1         53.2937   -8.5338   28.6134 O.3       1 <0>         0.0000
     13 O2         53.2453  -10.7265   28.5178 O.2       1 <0>         0.0000
     14 O3         46.4114   -7.4046   30.0770 O.2       1 <0>         0.0000
     15 O4         47.5581   -9.6085   30.9429 O.3       1 <0>         0.0000
     16 O5         45.0308   -9.3561   31.1956 O.3       1 <0>         0.0000
     17 O6         46.0686   -9.7073   28.8864 O.3       1 <0>         0.0000
     18 P1         46.2773   -8.8888   30.2709 P.3       1 <0>         0.0000
     19 H1         51.2910   -7.4681   29.5031 H         1 <0>         0.0000
     20 H2         51.1965  -11.7763   29.3149 H         1 <0>         0.0000
     21 H3         49.0161   -7.4641   30.4495 H         1 <0>         0.0000
     22 H4         48.9221  -11.7634   30.2617 H         1 <0>         0.0000
     23 H5         46.1768   -9.6169   33.5840 H         1 <0>         0.0000
     24 H6         46.7951   -8.1544   32.7796 H         1 <0>         0.0000
     25 H7         45.7264   -7.9971   34.1681 H         1 <0>         0.0000
     26 H8         43.4236   -9.9726   28.7419 H         1 <0>         0.0000
     27 H9         43.8321   -8.3220   29.2683 H         1 <0>         0.0000
     28 H10        43.1707   -8.5829   27.6591 H         1 <0>         0.0000
     29 H11        44.4797   -7.5736   32.0459 H         1 <0>         0.0000
     30 H12        43.8580   -9.0397   32.8475 H         1 <0>         0.0000
     31 H13        45.6384   -8.2153   27.5471 H         1 <0>         0.0000
     32 H14        45.2341   -9.8698   27.0203 H         1 <0>         0.0000
@<TRIPOS>BOND
     1    1    3 ar
     2    1    5 ar
     3    2    4 ar
     4    2    5 ar
     5    3    6 ar
     6    4    6 ar
     7    5   11 1
     8    6   15 1
     9    7    9 1
    10    8   10 1
    11    9   16 1
    12   10   17 1
    13   11   12 1
    14   11   13 2
    15   14   18 2
    16   15   18 1
    17   16   18 1
    18   17   18 1
    19    1   19 1
    20    2   20 1
    21    3   21 1
    22    4   22 1
    23    7   23 1
    24    7   24 1
    25    7   25 1
    26    8   26 1
    27    8   27 1
    28    8   28 1
    29    9   29 1
    30    9   30 1
    31   10   31 1
    32   10   32 1
@<TRIPOS>MOLECULE
*****
   32    32     0     0     0
SMALL
NO_CHARGES

@<TRIPOS>ATOM
      1 C1         50.8609   -9.0656   29.6798 C.ar      1 <0>         0.0000
      2 C2         50.4715  -11.4459   29.8181 C.ar      1 <0>         0.0000
      3 C3         49.6037   -8.8275   30.2349 C.ar      1 <0>         0.0000
      4 C4         49.2141  -11.2080   30.3731 C.ar      1 <0>         0.0000
      5 C5         51.2949  -10.3748   29.4714 C.ar      1 <0>         0.0000
      6 C6         48.7802   -9.8987   30.5815 C.ar      1 <0>         0.0000
      7 C7         46.1432   -8.2144   33.3735 C.3       1 <0>         0.0000
      8 C8         43.8633   -8.7969   28.6197 C.3       1 <0>         0.0000
      9 C9         44.9274   -8.1313   32.4754 C.3       1 <0>         0.0000
     10 C10        45.2095   -9.2128   28.0661 C.3       1 <0>         0.0000
     11 N1         52.5746  -10.6173   28.9061 N.pl3     1 <0>         0.0000
     12 O1         53.2999   -9.6399   28.6011 O.3       1 <0>         0.0000
     13 O2         52.9453  -11.8027   28.7266 O.2       1 <0>         0.0000
     14 O3         46.6895   -7.4160   30.0641 O.2       1 <0>         0.0000
     15 O4         47.5466   -9.6652   31.1263 O.3       1 <0>         0.0000
     16 O5         45.0877   -9.0360   31.3966 O.3       1 <0>         0.0000
     17 O6         45.9940   -9.7517   29.1164 O.3       1 <0>         0.0000
     18 P1         46.3574   -8.8407   30.4080 P.3       1 <0>         0.0000
     19 H1         51.4930   -8.2217   29.4144 H         1 <0>         0.0000
     20 H2         50.7969  -12.4713   29.6606 H         1 <0>         0.0000
     21 H3         49.2713   -7.8056   30.3952 H         1 <0>         0.0000
     22 H4         48.5770  -12.0466   30.6408 H         1 <0>         0.0000
     23 H5         46.2607   -9.2233   33.7787 H         1 <0>         0.0000
     24 H6         47.0501   -7.9473   32.8211 H         1 <0>         0.0000
     25 H7         46.0575   -7.5073   34.2053 H         1 <0>         0.0000
     26 H8         43.3346   -9.6544   29.0454 H         1 <0>         0.0000
     27 H9         43.9840   -8.0347   29.3965 H         1 <0>         0.0000
     28 H10        43.2428   -8.3544   27.8334 H         1 <0>         0.0000
     29 H11        44.8156   -7.1198   32.0735 H         1 <0>         0.0000
     30 H12        44.0223   -8.3991   33.0286 H         1 <0>         0.0000
     31 H13        45.7329   -8.3507   27.6420 H         1 <0>         0.0000
     32 H14        45.0871   -9.9748   27.2908 H         1 <0>         0.0000
@<TRIPOS>BOND
     1    1    3 ar
     2    1    5 ar
     3    2    4 ar
     4    2    5 ar
     5    3    6 ar
     6    4    6 ar
     7    5   11 1
     8    6   15 1
     9    7    9 1
    10    8   10 1
    11    9   16 1
    12   10   17 1
    13   11   12 1
    14   11   13 2
    15   14   18 2
    16   15   18 1
    17   16   18 1
    18   17   18 1
    19    1   19 1
    20    2   20 1
    21    3   21 1
    22    4   22 1
    23    7   23 1
    24    7   24 1
    25    7   25 1
    26    8   26 1
    27    8   27 1
    28    8   28 1
    29    9   29 1
    30    9   30 1
    31   10   31 1
    32   10   32 1
@<TRIPOS>MOLECULE
*****
   32    32     0     0     0
SMALL
NO_CHARGES

@<TRIPOS>ATOM
      1 C1         50.9252   -9.0467   29.3378 C.ar      1 <0>         0.0000
      2 C2         50.5357  -11.4270   29.4760 C.ar      1 <0>         0.0000
      3 C3         49.6680   -8.8086   29.8929 C.ar      1 <0>         0.0000
      4 C4         49.2784  -11.1891   30.0311 C.ar      1 <0>         0.0000
      5 C5         51.3592  -10.3559   29.1293 C.ar      1 <0>         0.0000
      6 C6         48.8445   -9.8798   30.2395 C.ar      1 <0>         0.0000
      7 C7         46.2075   -8.1955   33.0315 C.3       1 <0>         0.0000
      8 C8         43.9275   -8.7780   28.2777 C.3       1 <0>         0.0000
      9 C9         44.9916   -8.1124   32.1333 C.3       1 <0>         0.0000
     10 C10        45.2738   -9.1939   27.7241 C.3       1 <0>         0.0000
     11 N1         52.6389  -10.5984   28.5641 N.pl3     1 <0>         0.0000
     12 O1         53.3642   -9.6210   28.2591 O.3       1 <0>         0.0000
     13 O2         53.0096  -11.7838   28.3846 O.2       1 <0>         0.0000
     14 O3         46.7538   -7.3971   29.7220 O.2       1 <0>         0.0000
     15 O4         47.6108   -9.6463   30.7843 O.3       1 <0>         0.0000
     16 O5         45.1520   -9.0171   31.0545 O.3       1 <0>         0.0000
     17 O6         46.0583   -9.7328   28.7744 O.3       1 <0>         0.0000
     18 P1         46.4216   -8.8218   30.0660 P.3       1 <0>         0.0000
     19 H1         51.5572   -8.2028   29.0724 H         1 <0>         0.0000
     20 H2         50.8612  -12.4524   29.3185 H         1 <0>         0.0000
     21 H3         49.3356   -7.7867   30.0532 H         1 <0>         0.0000
     22 H4         48.6413  -12.0277   30.2987 H         1 <0>         0.0000
     23 H5         46.3250   -9.2044   33.4367 H         1 <0>         0.0000
     24 H6         47.1144   -7.9284   32.4791 H         1 <0>         0.0000
     25 H7         46.1217   -7.4884   33.8633 H         1 <0>         0.0000
     26 H8         43.3988   -9.6355   28.7033 H         1 <0>         0.0000
     27 H9         44.0482   -8.0159   29.0544 H         1 <0>         0.0000
     28 H10        43.3071   -8.3355   27.4914 H         1 <0>         0.0000
     29 H11        44.8799   -7.1009   31.7314 H         1 <0>         0.0000
     30 H12        44.0865   -8.3802   32.6866 H         1 <0>         0.0000
     31 H13        45.7972   -8.3318   27.3000 H         1 <0>         0.0000
     32 H14        45.1513   -9.9559   26.9488 H         1 <0>         0.0000
@<TRIPOS>BOND
     1    1    3 ar
     2    1    5 ar
     3    2    4 ar
     4    2    5 ar
     5    3    6 ar
     6    4    6 ar
     7    5   11 1
     8    6   15 1
     9    7    9 1
    10    8   10 1
    11    9   16 1
    12   10   17 1
    13   11   12 1
    14   11   13 2
    15   14   18 2
    16   15   18 1
    17   16   18 1
    18   17   18 1
    19    1   19 1
    20    2   20 1
    21    3   21 1
    22    4   22 1
    23    7   23 1
    24    7   24 1
    25    7   25 1
    26    8   26 1
    27    8   27 1
    28    8   28 1
    29    9   29 1
    30    9   30 1
    31   10   31 1
    32   10   32 1
@<TRIPOS>MOLECULE
*****
   32    32     0     0     0
SMALL
NO_CHARGES

@<TRIPOS>ATOM
      1 C1         50.2410   -6.8336   31.0465 C.ar      1 <0>         0.0000
      2 C2         51.1614   -9.0023   30.5111 C.ar      1 <0>         0.0000
      3 C3         49.0035   -7.2343   30.5429 C.ar      1 <0>         0.0000
      4 C4         49.9239   -9.4030   30.0074 C.ar      1 <0>         0.0000
      5 C5         51.3200   -7.7175   31.0306 C.ar      1 <0>         0.0000
      6 C6         48.8450   -8.5190   30.0233 C.ar      1 <0>         0.0000
      7 C7         45.4786   -8.3396   33.8993 C.3       1 <0>         0.0000
      8 C8         45.0042   -9.1015   27.3171 C.3       1 <0>         0.0000
      9 C9         45.1430   -8.1953   32.4301 C.3       1 <0>         0.0000
     10 C10        45.2481  -10.1634   28.3681 C.3       1 <0>         0.0000
     11 N1         52.5799   -7.3097   31.5430 N.pl3     1 <0>         0.0000
     12 O1         52.7016   -6.1497   32.0057 O.3       1 <0>         0.0000
     13 O2         53.5374   -8.1204   31.5187 O.2       1 <0>         0.0000
     14 O3         45.7933   -7.0296   29.5060 O.2       1 <0>         0.0000
     15 O4         47.6307   -8.9124   29.5293 O.3       1 <0>         0.0000
     16 O5         46.3043   -8.4620   31.6630 O.3       1 <0>         0.0000
     17 O6         45.1784   -9.5669   29.6520 O.3       1 <0>         0.0000
     18 P1         46.1997   -8.3710   30.0481 P.3       1 <0>         0.0000
     19 H1         50.3510   -5.8295   31.4489 H         1 <0>         0.0000
     20 H2         51.9940   -9.7012   30.4920 H         1 <0>         0.0000
     21 H3         48.1667   -6.5413   30.5583 H         1 <0>         0.0000
     22 H4         49.8066  -10.4050   29.6037 H         1 <0>         0.0000
     23 H5         45.8197   -9.3541   34.1237 H         1 <0>         0.0000
     24 H6         46.2622   -7.6313   34.1877 H         1 <0>         0.0000
     25 H7         44.6037   -8.1160   34.5186 H         1 <0>         0.0000
     26 H8         44.0152   -8.6514   27.4394 H         1 <0>         0.0000
     27 H9         45.7617   -8.3136   27.3814 H         1 <0>         0.0000
     28 H10        45.0753   -9.5302   26.3119 H         1 <0>         0.0000
     29 H11        44.8027   -7.1785   32.2124 H         1 <0>         0.0000
     30 H12        44.3606   -8.9042   32.1435 H         1 <0>         0.0000
     31 H13        46.2389  -10.6096   28.2402 H         1 <0>         0.0000
     32 H14        44.4900  -10.9495   28.3030 H         1 <0>         0.0000
@<TRIPOS>BOND
     1    1    3 ar
     2    1    5 ar
     3    2    4 ar
     4    2    5 ar
     5    3    6 ar
     6    4    6 ar
     7    5   11 1
     8    6   15 1
     9    7    9 1
    10    8   10 1
    11    9   16 1
    12   10   17 1
    13   11   12 1
    14   11   13 2
    15   14   18 2
    16   15   18 1
    17   16   18 1
    18   17   18 1
    19    1   19 1
    20    2   20 1
    21    3   21 1
    22    4   22 1
    23    7   23 1
    24    7   24 1
    25    7   25 1
    26    8   26 1
    27    8   27 1
    28    8   28 1
    29    9   29 1
    30    9   30 1
    31   10   31 1
    32   10   32 1
@<TRIPOS>MOLECULE
*****
   32    32     0     0     0
SMALL
NO_CHARGES

@<TRIPOS>ATOM
      1 C1         50.9084   -8.2777   29.8945 C.ar      1 <0>         0.0000
      2 C2         51.3045  -10.6051   29.3809 C.ar      1 <0>         0.0000
      3 C3         49.5446   -8.5389   30.0260 C.ar      1 <0>         0.0000
      4 C4         49.9407  -10.8662   29.5123 C.ar      1 <0>         0.0000
      5 C5         51.7884   -9.3108   29.5719 C.ar      1 <0>         0.0000
      6 C6         49.0607   -9.8331   29.8350 C.ar      1 <0>         0.0000
      7 C7         45.7747   -8.3260   34.1058 C.3       1 <0>         0.0000
      8 C8         44.9231   -8.7624   27.7716 C.3       1 <0>         0.0000
      9 C9         45.5906   -8.1974   32.6086 C.3       1 <0>         0.0000
     10 C10        44.9319  -10.0391   28.5850 C.3       1 <0>         0.0000
     11 N1         53.1768   -9.0452   29.4377 N.pl3     1 <0>         0.0000
     12 O1         53.5918   -7.8741   29.6136 O.3       1 <0>         0.0000
     13 O2         53.9511   -9.9889   29.1465 O.2       1 <0>         0.0000
     14 O3         46.7806   -7.6501   29.6733 O.2       1 <0>         0.0000
     15 O4         47.7225  -10.0893   29.9641 O.3       1 <0>         0.0000
     16 O5         46.5859   -8.9645   31.9536 O.3       1 <0>         0.0000
     17 O6         45.2081   -9.7223   29.9386 O.3       1 <0>         0.0000
     18 P1         46.5994   -8.9881   30.3329 P.3       1 <0>         0.0000
     19 H1         51.2725   -7.2646   30.0464 H         1 <0>         0.0000
     20 H2         51.9792  -11.4195   29.1285 H         1 <0>         0.0000
     21 H3         48.8640   -7.7301   30.2779 H         1 <0>         0.0000
     22 H4         49.5697  -11.8763   29.3619 H         1 <0>         0.0000
     23 H5         45.6770   -9.3680   34.4227 H         1 <0>         0.0000
     24 H6         46.7603   -7.9559   34.4067 H         1 <0>         0.0000
     25 H7         45.0319   -7.7234   34.6390 H         1 <0>         0.0000
     26 H8         44.1536   -8.0747   28.1330 H         1 <0>         0.0000
     27 H9         45.8965   -8.2637   27.8255 H         1 <0>         0.0000
     28 H10        44.7349   -8.9794   26.7149 H         1 <0>         0.0000
     29 H11        45.6896   -7.1529   32.2982 H         1 <0>         0.0000
     30 H12        44.6059   -8.5683   32.3096 H         1 <0>         0.0000
     31 H13        45.7037  -10.7224   28.2185 H         1 <0>         0.0000
     32 H14        43.9585  -10.5356   28.5308 H         1 <0>         0.0000
@<TRIPOS>BOND
     1    1    3 ar
     2    1    5 ar
     3    2    4 ar
     4    2    5 ar
     5    3    6 ar
     6    4    6 ar
     7    5   11 1
     8    6   15 1
     9    7    9 1
    10    8   10 1
    11    9   16 1
    12   10   17 1
    13   11   12 1
    14   11   13 2
    15   14   18 2
    16   15   18 1
    17   16   18 1
    18   17   18 1
    19    1   19 1
    20    2   20 1
    21    3   21 1
    22    4   22 1
    23    7   23 1
    24    7   24 1
    25    7   25 1
    26    8   26 1
    27    8   27 1
    28    8   28 1
    29    9   29 1
    30    9   30 1
    31   10   31 1
    32   10   32 1
@<TRIPOS>MOLECULE
*****
   32    32     0     0     0
SMALL
NO_CHARGES

@<TRIPOS>ATOM
      1 C1         50.6165   -8.8288   29.0533 C.ar      1 <0>         0.0000
      2 C2         50.5533  -10.9951   30.1210 C.ar      1 <0>         0.0000
      3 C3         49.2229   -8.8155   28.9978 C.ar      1 <0>         0.0000
      4 C4         49.1597  -10.9818   30.0655 C.ar      1 <0>         0.0000
      5 C5         51.2818   -9.9186   29.6148 C.ar      1 <0>         0.0000
      6 C6         48.4944   -9.8920   29.5038 C.ar      1 <0>         0.0000
      7 C7         45.9485   -8.6816   34.0575 C.3       1 <0>         0.0000
      8 C8         44.8579   -9.5436   27.4887 C.3       1 <0>         0.0000
      9 C9         45.5772   -8.2916   32.6426 C.3       1 <0>         0.0000
     10 C10        44.0355   -9.0004   28.6377 C.3       1 <0>         0.0000
     11 N1         52.7005   -9.9326   29.6714 N.pl3     1 <0>         0.0000
     12 O1         53.3372   -8.9545   29.2105 O.3       1 <0>         0.0000
     13 O2         53.2791  -10.9230   30.1803 O.2       1 <0>         0.0000
     14 O3         46.4078   -7.3588   29.6809 O.2       1 <0>         0.0000
     15 O4         47.1269   -9.8789   29.4495 O.3       1 <0>         0.0000
     16 O5         46.3911   -9.0149   31.7357 O.3       1 <0>         0.0000
     17 O6         44.6829   -9.3160   29.8585 O.3       1 <0>         0.0000
     18 P1         46.1823   -8.7695   30.1472 P.3       1 <0>         0.0000
     19 H1         51.1723   -7.9831   28.6555 H         1 <0>         0.0000
     20 H2         51.0591  -11.8512   30.5609 H         1 <0>         0.0000
     21 H3         48.7103   -7.9635   28.5594 H         1 <0>         0.0000
     22 H4         48.5977  -11.8235   30.4610 H         1 <0>         0.0000
     23 H5         45.7890   -9.7509   34.2220 H         1 <0>         0.0000
     24 H6         46.9982   -8.4455   34.2602 H         1 <0>         0.0000
     25 H7         45.3501   -8.1196   34.7822 H         1 <0>         0.0000
     26 H8         45.8567   -9.0986   27.4791 H         1 <0>         0.0000
     27 H9         44.9560  -10.6315   27.5648 H         1 <0>         0.0000
     28 H10        44.3688   -9.3343   26.5315 H         1 <0>         0.0000
     29 H11        45.7390   -7.2211   32.4848 H         1 <0>         0.0000
     30 H12        44.5284   -8.5290   32.4416 H         1 <0>         0.0000
     31 H13        43.0378   -9.4493   28.6416 H         1 <0>         0.0000
     32 H14        43.9390   -7.9133   28.5607 H         1 <0>         0.0000
@<TRIPOS>BOND
     1    1    3 ar
     2    1    5 ar
     3    2    4 ar
     4    2    5 ar
     5    3    6 ar
     6    4    6 ar
     7    5   11 1
     8    6   15 1
     9    7    9 1
    10    8   10 1
    11    9   16 1
    12   10   17 1
    13   11   12 1
    14   11   13 2
    15   14   18 2
    16   15   18 1
    17   16   18 1
    18   17   18 1
    19    1   19 1
    20    2   20 1
    21    3   21 1
    22    4   22 1
    23    7   23 1
    24    7   24 1
    25    7   25 1
    26    8   26 1
    27    8   27 1
    28    8   28 1
    29    9   29 1
    30    9   30 1
    31   10   31 1
    32   10   32 1
@<TRIPOS>MOLECULE
*****
   32    32     0     0     0
SMALL
NO_CHARGES

@<TRIPOS>ATOM
      1 C1         50.6411   -9.8327   29.7912 C.ar      1 <0>         0.0000
      2 C2         50.1467  -12.1867   29.5649 C.ar      1 <0>         0.0000
      3 C3         49.2797   -9.5393   29.7136 C.ar      1 <0>         0.0000
      4 C4         48.7853  -11.8933   29.4874 C.ar      1 <0>         0.0000
      5 C5         51.0747  -11.1564   29.7168 C.ar      1 <0>         0.0000
      6 C6         48.3517  -10.5696   29.5616 C.ar      1 <0>         0.0000
      7 C7         46.6540   -8.4987   33.4554 C.3       1 <0>         0.0000
      8 C8         44.6922  -10.4070   27.5646 C.3       1 <0>         0.0000
      9 C9         46.2730   -9.1511   32.1436 C.3       1 <0>         0.0000
     10 C10        44.1046   -9.2245   28.3049 C.3       1 <0>         0.0000
     11 N1         52.4605  -11.4554   29.7955 N.pl3     1 <0>         0.0000
     12 O1         53.2789  -10.5141   29.9320 O.3       1 <0>         0.0000
     13 O2         52.8292  -12.6529   29.7262 O.2       1 <0>         0.0000
     14 O3         46.8443   -7.8559   28.4817 O.2       1 <0>         0.0000
     15 O4         47.0159  -10.2816   29.4857 O.3       1 <0>         0.0000
     16 O5         46.6810   -8.3134   31.0758 O.3       1 <0>         0.0000
     17 O6         44.7835   -9.0690   29.5393 O.3       1 <0>         0.0000
     18 P1         46.3822   -8.7973   29.5580 P.3       1 <0>         0.0000
     19 H1         51.3538   -9.0202   29.9098 H         1 <0>         0.0000
     20 H2         50.4708  -13.2228   29.5050 H         1 <0>         0.0000
     21 H3         48.9480   -8.5062   29.7724 H         1 <0>         0.0000
     22 H4         48.0672  -12.7002   29.3687 H         1 <0>         0.0000
     23 H5         47.7361   -8.3537   33.5194 H         1 <0>         0.0000
     24 H6         46.1603   -7.5271   33.5611 H         1 <0>         0.0000
     25 H7         46.3295   -9.1142   34.3010 H         1 <0>         0.0000
     26 H8         45.7552  -10.2509   27.3610 H         1 <0>         0.0000
     27 H9         44.5753  -11.3253   28.1494 H         1 <0>         0.0000
     28 H10        44.1703  -10.5658   26.6151 H         1 <0>         0.0000
     29 H11        45.1898   -9.2931   32.0860 H         1 <0>         0.0000
     30 H12        46.7678  -10.1213   32.0393 H         1 <0>         0.0000
     31 H13        43.0414   -9.3870   28.5053 H         1 <0>         0.0000
     32 H14        44.2229   -8.3078   27.7195 H         1 <0>         0.0000
@<TRIPOS>BOND
     1    1    3 ar
     2    1    5 ar
     3    2    4 ar
     4    2    5 ar
     5    3    6 ar
     6    4    6 ar
     7    5   11 1
     8    6   15 1
     9    7    9 1
    10    8   10 1
    11    9   16 1
    12   10   17 1
    13   11   12 1
    14   11   13 2
    15   14   18 2
    16   15   18 1
    17   16   18 1
    18   17   18 1
    19    1   19 1
    20    2   20 1
    21    3   21 1
    22    4   22 1
    23    7   23 1
    24    7   24 1
    25    7   25 1
    26    8   26 1
    27    8   27 1
    28    8   28 1
    29    9   29 1
    30    9   30 1
    31   10   31 1
    32   10   32 1
@<TRIPOS>MOLECULE
*****
   32    32     0     0     0
SMALL
NO_CHARGES

@<TRIPOS>ATOM
      1 C1         51.0671  -10.6952   29.0947 C.ar      1 <0>         0.0000
      2 C2         49.7941  -12.5634   28.2423 C.ar      1 <0>         0.0000
      3 C3         49.9194  -10.1928   29.7077 C.ar      1 <0>         0.0000
      4 C4         48.6464  -12.0610   28.8554 C.ar      1 <0>         0.0000
      5 C5         51.0046  -11.8805   28.3619 C.ar      1 <0>         0.0000
      6 C6         48.7091  -10.8757   29.5881 C.ar      1 <0>         0.0000
      7 C7         45.1850   -8.3876   33.3510 C.3       1 <0>         0.0000
      8 C8         44.3085  -10.2818   27.2762 C.3       1 <0>         0.0000
      9 C9         46.3532   -8.5686   32.4054 C.3       1 <0>         0.0000
     10 C10        45.0225  -10.2425   28.6105 C.3       1 <0>         0.0000
     11 N1         52.1727  -12.3921   27.7376 N.pl3     1 <0>         0.0000
     12 O1         53.2516  -11.7626   27.8572 O.3       1 <0>         0.0000
     13 O2         52.0943  -13.4597   27.0827 O.2       1 <0>         0.0000
     14 O3         47.9095   -7.8195   29.6944 O.2       1 <0>         0.0000
     15 O4         47.5829  -10.3827   30.1898 O.3       1 <0>         0.0000
     16 O5         45.8594   -8.7274   31.0867 O.3       1 <0>         0.0000
     17 O6         45.9989   -9.2155   28.5817 O.3       1 <0>         0.0000
     18 P1         46.9251   -8.9392   29.8839 P.3       1 <0>         0.0000
     19 H1         52.0043  -10.1533   29.1962 H         1 <0>         0.0000
     20 H2         49.7311  -13.4880   27.6738 H         1 <0>         0.0000
     21 H3         49.9745   -9.2692   30.2775 H         1 <0>         0.0000
     22 H4         47.7064  -12.5972   28.7583 H         1 <0>         0.0000
     23 H5         44.6032   -7.5000   33.0870 H         1 <0>         0.0000
     24 H6         44.5271   -9.2624   33.3237 H         1 <0>         0.0000
     25 H7         45.5362   -8.2854   34.3832 H         1 <0>         0.0000
     26 H8         43.8086   -9.3307   27.0730 H         1 <0>         0.0000
     27 H9         45.0153  -10.4899   26.4662 H         1 <0>         0.0000
     28 H10        43.5624  -11.0833   27.2613 H         1 <0>         0.0000
     29 H11        46.9308   -9.4578   32.6749 H         1 <0>         0.0000
     30 H12        47.0090   -7.6933   32.4332 H         1 <0>         0.0000
     31 H13        45.5203  -11.1966   28.8076 H         1 <0>         0.0000
     32 H14        44.3150  -10.0337   29.4185 H         1 <0>         0.0000
@<TRIPOS>BOND
     1    1    3 ar
     2    1    5 ar
     3    2    4 ar
     4    2    5 ar
     5    3    6 ar
     6    4    6 ar
     7    5   11 1
     8    6   15 1
     9    7    9 1
    10    8   10 1
    11    9   16 1
    12   10   17 1
    13   11   12 1
    14   11   13 2
    15   14   18 2
    16   15   18 1
    17   16   18 1
    18   17   18 1
    19    1   19 1
    20    2   20 1
    21    3   21 1
    22    4   22 1
    23    7   23 1
    24    7   24 1
    25    7   25 1
    26    8   26 1
    27    8   27 1
    28    8   28 1
    29    9   29 1
    30    9   30 1
    31   10   31 1
    32   10   32 1
@<TRIPOS>MOLECULE
*****
   32    32     0     0     0
SMALL
NO_CHARGES

@<TRIPOS>ATOM
      1 C1         50.7712  -10.3308   29.8555 C.ar      1 <0>         0.0000
      2 C2         50.2733  -12.6407   29.3518 C.ar      1 <0>         0.0000
      3 C3         49.4069  -10.0424   29.8815 C.ar      1 <0>         0.0000
      4 C4         48.9089  -12.3522   29.3778 C.ar      1 <0>         0.0000
      5 C5         51.2045  -11.6300   29.5905 C.ar      1 <0>         0.0000
      6 C6         48.4757  -11.0530   29.6428 C.ar      1 <0>         0.0000
      7 C7         45.7256   -8.3061   33.6678 C.3       1 <0>         0.0000
      8 C8         45.2361   -8.5107   27.2837 C.3       1 <0>         0.0000
      9 C9         45.7153   -8.1474   32.1623 C.3       1 <0>         0.0000
     10 C10        44.6913   -9.6747   28.0837 C.3       1 <0>         0.0000
     11 N1         52.5935  -11.9239   29.5637 N.pl3     1 <0>         0.0000
     12 O1         53.4149  -11.0005   29.7810 O.3       1 <0>         0.0000
     13 O2         52.9618  -13.0992   29.3230 O.2       1 <0>         0.0000
     14 O3         47.2351   -8.1628   29.3299 O.2       1 <0>         0.0000
     15 O4         47.1368  -10.7700   29.6685 O.3       1 <0>         0.0000
     16 O5         46.3816   -9.2527   31.5770 O.3       1 <0>         0.0000
     17 O6         44.9690   -9.4612   29.4572 O.3       1 <0>         0.0000
     18 P1         46.5031   -9.3132   29.9618 P.3       1 <0>         0.0000
     19 H1         51.4865   -9.5340   30.0437 H         1 <0>         0.0000
     20 H2         50.5972  -13.6575   29.1435 H         1 <0>         0.0000
     21 H3         49.0755   -9.0285   30.0889 H         1 <0>         0.0000
     22 H4         48.1883  -13.1436   29.1906 H         1 <0>         0.0000
     23 H5         45.2098   -9.2229   33.9669 H         1 <0>         0.0000
     24 H6         46.7528   -8.3392   34.0455 H         1 <0>         0.0000
     25 H7         45.2368   -7.4526   34.1491 H         1 <0>         0.0000
     26 H8         44.7681   -7.5719   27.5926 H         1 <0>         0.0000
     27 H9         46.3198   -8.4255   27.4153 H         1 <0>         0.0000
     28 H10        45.0562   -8.6599   26.2139 H         1 <0>         0.0000
     29 H11        46.2327   -7.2288   31.8698 H         1 <0>         0.0000
     30 H12        44.6884   -8.1155   31.7866 H         1 <0>         0.0000
     31 H13        45.1634  -10.6104   27.7701 H         1 <0>         0.0000
     32 H14        43.6084   -9.7578   27.9519 H         1 <0>         0.0000
@<TRIPOS>BOND
     1    1    3 ar
     2    1    5 ar
     3    2    4 ar
     4    2    5 ar
     5    3    6 ar
     6    4    6 ar
     7    5   11 1
     8    6   15 1
     9    7    9 1
    10    8   10 1
    11    9   16 1
    12   10   17 1
    13   11   12 1
    14   11   13 2
    15   14   18 2
    16   15   18 1
    17   16   18 1
    18   17   18 1
    19    1   19 1
    20    2   20 1
    21    3   21 1
    22    4   22 1
    23    7   23 1
    24    7   24 1
    25    7   25 1
    26    8   26 1
    27    8   27 1
    28    8   28 1
    29    9   29 1
    30    9   30 1
    31   10   31 1
    32   10   32 1
@<TRIPOS>MOLECULE
*****
   32    32     0     0     0
SMALL
NO_CHARGES

@<TRIPOS>ATOM
      1 C1         49.6213  -12.5278   28.2548 C.ar      1 <0>         0.0000
      2 C2         51.4594  -11.1264   28.9578 C.ar      1 <0>         0.0000
      3 C3         48.7247  -11.6739   28.8971 C.ar      1 <0>         0.0000
      4 C4         50.5628  -10.2725   29.6000 C.ar      1 <0>         0.0000
      5 C5         50.9887  -12.2540   28.2852 C.ar      1 <0>         0.0000
      6 C6         49.1954  -10.5463   29.5696 C.ar      1 <0>         0.0000
      7 C7         45.1075   -8.2341   32.7696 C.3       1 <0>         0.0000
      8 C8         44.1871   -8.7750   28.5601 C.3       1 <0>         0.0000
      9 C9         45.8489   -9.0742   31.7516 C.3       1 <0>         0.0000
     10 C10        45.1334   -9.8085   27.9872 C.3       1 <0>         0.0000
     11 N1         51.9018  -13.1232   27.6317 N.pl3     1 <0>         0.0000
     12 O1         51.4579  -14.1324   27.0323 O.3       1 <0>         0.0000
     13 O2         53.1278  -12.8587   27.6717 O.2       1 <0>         0.0000
     14 O3         47.5466   -7.9583   28.3922 O.2       1 <0>         0.0000
     15 O4         48.3155   -9.7084   30.1998 O.3       1 <0>         0.0000
     16 O5         46.2891   -8.2379   30.6956 O.3       1 <0>         0.0000
     17 O6         46.1403  -10.0927   28.9435 O.3       1 <0>         0.0000
     18 P1         47.1145   -8.9091   29.4728 P.3       1 <0>         0.0000
     19 H1         49.2411  -13.4031   27.7338 H         1 <0>         0.0000
     20 H2         52.5227  -10.9013   28.9898 H         1 <0>         0.0000
     21 H3         47.6605  -11.8922   28.8696 H         1 <0>         0.0000
     22 H4         50.9356   -9.3958   30.1227 H         1 <0>         0.0000
     23 H5         45.7587   -7.4603   33.1856 H         1 <0>         0.0000
     24 H6         44.2356   -7.7545   32.3129 H         1 <0>         0.0000
     25 H7         44.7347   -8.8593   33.5878 H         1 <0>         0.0000
     26 H8         43.7086   -9.1461   29.4707 H         1 <0>         0.0000
     27 H9         44.7225   -7.8490   28.7941 H         1 <0>         0.0000
     28 H10        43.4102   -8.5180   27.8324 H         1 <0>         0.0000
     29 H11        45.1921   -9.8460   31.3395 H         1 <0>         0.0000
     30 H12        46.7202   -9.5520   32.2094 H         1 <0>         0.0000
     31 H13        45.6085   -9.4310   27.0768 H         1 <0>         0.0000
     32 H14        44.5970  -10.7332   27.7547 H         1 <0>         0.0000
@<TRIPOS>BOND
     1    1    3 ar
     2    1    5 ar
     3    2    4 ar
     4    2    5 ar
     5    3    6 ar
     6    4    6 ar
     7    5   11 1
     8    6   15 1
     9    7    9 1
    10    8   10 1
    11    9   16 1
    12   10   17 1
    13   11   12 1
    14   11   13 2
    15   14   18 2
    16   15   18 1
    17   16   18 1
    18   17   18 1
    19    1   19 1
    20    2   20 1
    21    3   21 1
    22    4   22 1
    23    7   23 1
    24    7   24 1
    25    7   25 1
    26    8   26 1
    27    8   27 1
    28    8   28 1
    29    9   29 1
    30    9   30 1
    31   10   31 1
    32   10   32 1
@<TRIPOS>MOLECULE
*****
   32    32     0     0     0
SMALL
NO_CHARGES

@<TRIPOS>ATOM
      1 C1         50.7341   -6.8198   30.9825 C.ar      1 <0>         0.0000
      2 C2         51.8934   -8.8311   30.3135 C.ar      1 <0>         0.0000
      3 C3         49.5108   -7.4419   30.7330 C.ar      1 <0>         0.0000
      4 C4         50.6701   -9.4532   30.0641 C.ar      1 <0>         0.0000
      5 C5         51.9254   -7.5143   30.7727 C.ar      1 <0>         0.0000
      6 C6         49.4788   -8.7585   30.2738 C.ar      1 <0>         0.0000
      7 C7         45.6476   -8.3480   33.2482 C.3       1 <0>         0.0000
      8 C8         44.6743   -8.5551   27.4781 C.3       1 <0>         0.0000
      9 C9         46.3825   -8.9759   32.0831 C.3       1 <0>         0.0000
     10 C10        44.6564   -9.5497   28.6193 C.3       1 <0>         0.0000
     11 N1         53.1708   -6.8813   31.0264 N.pl3     1 <0>         0.0000
     12 O1         53.1777   -5.6963   31.4390 O.3       1 <0>         0.0000
     13 O2         54.2306   -7.5241   30.8308 O.2       1 <0>         0.0000
     14 O3         47.1408   -7.5169   28.5468 O.2       1 <0>         0.0000
     15 O4         48.2785   -9.3690   30.0291 O.3       1 <0>         0.0000
     16 O5         46.2309   -8.1491   30.9422 O.3       1 <0>         0.0000
     17 O6         45.9896   -9.8164   29.0202 O.3       1 <0>         0.0000
     18 P1         46.9327   -8.6108   29.5560 P.3       1 <0>         0.0000
     19 H1         50.7448   -5.7932   31.3406 H         1 <0>         0.0000
     20 H2         52.8143   -9.3839   30.1453 H         1 <0>         0.0000
     21 H3         48.5862   -6.8958   30.8986 H         1 <0>         0.0000
     22 H4         50.6517  -10.4790   29.7060 H         1 <0>         0.0000
     23 H5         46.0531   -7.3588   33.4778 H         1 <0>         0.0000
     24 H6         44.5805   -8.2493   33.0236 H         1 <0>         0.0000
     25 H7         45.7281   -8.9785   34.1399 H         1 <0>         0.0000
     26 H8         45.1404   -7.6154   27.7870 H         1 <0>         0.0000
     27 H9         45.2257   -8.9590   26.6227 H         1 <0>         0.0000
     28 H10        43.6565   -8.3474   27.1314 H         1 <0>         0.0000
     29 H11        45.9721   -9.9649   31.8587 H         1 <0>         0.0000
     30 H12        47.4485   -9.0731   32.3089 H         1 <0>         0.0000
     31 H13        44.1890  -10.4872   28.3039 H         1 <0>         0.0000
     32 H14        44.1059   -9.1443   29.4735 H         1 <0>         0.0000
@<TRIPOS>BOND
     1    1    3 ar
     2    1    5 ar
     3    2    4 ar
     4    2    5 ar
     5    3    6 ar
     6    4    6 ar
     7    5   11 1
     8    6   15 1
     9    7    9 1
    10    8   10 1
    11    9   16 1
    12   10   17 1
    13   11   12 1
    14   11   13 2
    15   14   18 2
    16   15   18 1
    17   16   18 1
    18   17   18 1
    19    1   19 1
    20    2   20 1
    21    3   21 1
    22    4   22 1
    23    7   23 1
    24    7   24 1
    25    7   25 1
    26    8   26 1
    27    8   27 1
    28    8   28 1
    29    9   29 1
    30    9   30 1
    31   10   31 1
    32   10   32 1
@<TRIPOS>MOLECULE
*****
   32    32     0     0     0
SMALL
NO_CHARGES

@<TRIPOS>ATOM
      1 C1         49.5698  -12.2705   28.7647 C.ar      1 <0>         0.0000
      2 C2         51.5772  -10.9589   29.0602 C.ar      1 <0>         0.0000
      3 C3         48.8175  -11.2503   29.3469 C.ar      1 <0>         0.0000
      4 C4         50.8248   -9.9387   29.6423 C.ar      1 <0>         0.0000
      5 C5         50.9497  -12.1248   28.6214 C.ar      1 <0>         0.0000
      6 C6         49.4450  -10.0845   29.7857 C.ar      1 <0>         0.0000
      7 C7         45.2374   -8.1125   32.8245 C.3       1 <0>         0.0000
      8 C8         44.8564  -10.4492   27.6796 C.3       1 <0>         0.0000
      9 C9         46.1038   -8.7864   31.7820 C.3       1 <0>         0.0000
     10 C10        45.4321   -9.1739   28.2571 C.3       1 <0>         0.0000
     11 N1         51.7159  -13.1632   28.0290 N.pl3     1 <0>         0.0000
     12 O1         51.1322  -14.2040   27.6410 O.3       1 <0>         0.0000
     13 O2         52.9559  -13.0119   27.9100 O.2       1 <0>         0.0000
     14 O3         47.9304   -7.2033   28.6884 O.2       1 <0>         0.0000
     15 O4         48.7067   -9.0835   30.3569 O.3       1 <0>         0.0000
     16 O5         46.5491   -7.8134   30.8529 O.3       1 <0>         0.0000
     17 O6         46.6527   -9.4737   28.9125 O.3       1 <0>         0.0000
     18 P1         47.5000   -8.2920   29.6307 P.3       1 <0>         0.0000
     19 H1         49.0683  -13.1739   28.4266 H         1 <0>         0.0000
     20 H2         52.6519  -10.8323   28.9551 H         1 <0>         0.0000
     21 H3         47.7430  -11.3696   29.4555 H         1 <0>         0.0000
     22 H4         51.3193   -9.0329   29.9826 H         1 <0>         0.0000
     23 H5         45.8010   -7.3466   33.3645 H         1 <0>         0.0000
     24 H6         44.3641   -7.6454   32.3575 H         1 <0>         0.0000
     25 H7         44.8591   -8.8459   33.5445 H         1 <0>         0.0000
     26 H8         45.5426  -10.8934   26.9531 H         1 <0>         0.0000
     27 H9         44.6608  -11.1782   28.4728 H         1 <0>         0.0000
     28 H10        43.8990  -10.2515   27.1861 H         1 <0>         0.0000
     29 H11        45.5342   -9.5512   31.2457 H         1 <0>         0.0000
     30 H12        46.9762   -9.2518   32.2503 H         1 <0>         0.0000
     31 H13        44.7410   -8.7348   28.9827 H         1 <0>         0.0000
     32 H14        45.6278   -8.4469   27.4632 H         1 <0>         0.0000
@<TRIPOS>BOND
     1    1    3 ar
     2    1    5 ar
     3    2    4 ar
     4    2    5 ar
     5    3    6 ar
     6    4    6 ar
     7    5   11 1
     8    6   15 1
     9    7    9 1
    10    8   10 1
    11    9   16 1
    12   10   17 1
    13   11   12 1
    14   11   13 2
    15   14   18 2
    16   15   18 1
    17   16   18 1
    18   17   18 1
    19    1   19 1
    20    2   20 1
    21    3   21 1
    22    4   22 1
    23    7   23 1
    24    7   24 1
    25    7   25 1
    26    8   26 1
    27    8   27 1
    28    8   28 1
    29    9   29 1
    30    9   30 1
    31   10   31 1
    32   10   32 1
@<TRIPOS>MOLECULE
*****
   32    32     0     0     0
SMALL
NO_CHARGES

@<TRIPOS>ATOM
      1 C1         50.7225   -9.3216   30.3609 C.ar      1 <0>         0.0000
      2 C2         50.6024  -11.3757   29.0949 C.ar      1 <0>         0.0000
      3 C3         49.3320   -9.2189   30.3264 C.ar      1 <0>         0.0000
      4 C4         49.2118  -11.2732   29.0604 C.ar      1 <0>         0.0000
      5 C5         51.3579  -10.4000   29.7452 C.ar      1 <0>         0.0000
      6 C6         48.5765  -10.1947   29.6760 C.ar      1 <0>         0.0000
      7 C7         44.7021   -7.8018   32.6141 C.3       1 <0>         0.0000
      8 C8         44.9350   -9.6817   27.7056 C.3       1 <0>         0.0000
      9 C9         46.1856   -8.0549   32.7782 C.3       1 <0>         0.0000
     10 C10        44.1702   -9.0448   28.8463 C.3       1 <0>         0.0000
     11 N1         52.7735  -10.5046   29.7800 N.pl3     1 <0>         0.0000
     12 O1         53.4346   -9.6163   30.3700 O.3       1 <0>         0.0000
     13 O2         53.3249  -11.4826   29.2194 O.2       1 <0>         0.0000
     14 O3         46.6621   -7.5255   29.7910 O.2       1 <0>         0.0000
     15 O4         47.2120  -10.0940   29.6423 O.3       1 <0>         0.0000
     16 O5         46.5746   -9.1018   31.9060 O.3       1 <0>         0.0000
     17 O6         44.8174   -9.3579   30.0677 O.3       1 <0>         0.0000
     18 P1         46.3539   -8.9007   30.3128 P.3       1 <0>         0.0000
     19 H1         51.2995   -8.5543   30.8714 H         1 <0>         0.0000
     20 H2         51.0847  -12.2213   28.6103 H         1 <0>         0.0000
     21 H3         48.8427   -8.3767   30.8082 H         1 <0>         0.0000
     22 H4         48.6287  -12.0362   28.5519 H         1 <0>         0.0000
     23 H5         44.4680   -7.5060   31.5877 H         1 <0>         0.0000
     24 H6         44.1275   -8.7001   32.8629 H         1 <0>         0.0000
     25 H7         44.3679   -7.0116   33.2945 H         1 <0>         0.0000
     26 H8         45.9603   -9.3038   27.6642 H         1 <0>         0.0000
     27 H9         44.9637  -10.7703   27.8205 H         1 <0>         0.0000
     28 H10        44.4436   -9.4756   26.7490 H         1 <0>         0.0000
     29 H11        46.4129   -8.3504   33.8068 H         1 <0>         0.0000
     30 H12        46.7583   -7.1568   32.5284 H         1 <0>         0.0000
     31 H13        43.1457   -9.4270   28.8821 H         1 <0>         0.0000
     32 H14        44.1431   -7.9572   28.7303 H         1 <0>         0.0000
@<TRIPOS>BOND
     1    1    3 ar
     2    1    5 ar
     3    2    4 ar
     4    2    5 ar
     5    3    6 ar
     6    4    6 ar
     7    5   11 1
     8    6   15 1
     9    7    9 1
    10    8   10 1
    11    9   16 1
    12   10   17 1
    13   11   12 1
    14   11   13 2
    15   14   18 2
    16   15   18 1
    17   16   18 1
    18   17   18 1
    19    1   19 1
    20    2   20 1
    21    3   21 1
    22    4   22 1
    23    7   23 1
    24    7   24 1
    25    7   25 1
    26    8   26 1
    27    8   27 1
    28    8   28 1
    29    9   29 1
    30    9   30 1
    31   10   31 1
    32   10   32 1
@<TRIPOS>MOLECULE
*****
   32    32     0     0     0
SMALL
NO_CHARGES

@<TRIPOS>ATOM
      1 C1         49.8218   -7.4644   30.4752 C.ar      1 <0>         0.0000
      2 C2         50.5022   -9.7312   29.9898 C.ar      1 <0>         0.0000
      3 C3         48.4929   -7.8111   30.2319 C.ar      1 <0>         0.0000
      4 C4         49.1732  -10.0780   29.7465 C.ar      1 <0>         0.0000
      5 C5         50.8265   -8.4244   30.3542 C.ar      1 <0>         0.0000
      6 C6         48.1685   -9.1179   29.8674 C.ar      1 <0>         0.0000
      7 C7         45.3723   -8.5964   33.6412 C.3       1 <0>         0.0000
      8 C8         45.0425  -10.3558   27.3972 C.3       1 <0>         0.0000
      9 C9         45.4540   -9.1634   32.2399 C.3       1 <0>         0.0000
     10 C10        43.9103   -9.6815   28.1422 C.3       1 <0>         0.0000
     11 N1         52.1794   -8.0717   30.6016 N.pl3     1 <0>         0.0000
     12 O1         52.4501   -6.8908   30.9282 O.3       1 <0>         0.0000
     13 O2         53.0678   -8.9506   30.4867 O.2       1 <0>         0.0000
     14 O3         45.6705   -7.2603   28.8129 O.2       1 <0>         0.0000
     15 O4         46.8645   -9.4581   29.6288 O.3       1 <0>         0.0000
     16 O5         45.5155   -8.0939   31.3122 O.3       1 <0>         0.0000
     17 O6         44.3290   -9.4069   29.4681 O.3       1 <0>         0.0000
     18 P1         45.6089   -8.4469   29.7330 P.3       1 <0>         0.0000
     19 H1         50.0609   -6.4424   30.7588 H         1 <0>         0.0000
     20 H2         51.2753  -10.4893   29.8912 H         1 <0>         0.0000
     21 H3         47.7145   -7.0589   30.3281 H         1 <0>         0.0000
     22 H4         48.9268  -11.0975   29.4625 H         1 <0>         0.0000
     23 H5         46.2523   -7.9880   33.8679 H         1 <0>         0.0000
     24 H6         44.4759   -7.9782   33.7560 H         1 <0>         0.0000
     25 H7         45.3001   -9.4019   34.3797 H         1 <0>         0.0000
     26 H8         45.9236   -9.7093   27.3581 H         1 <0>         0.0000
     27 H9         45.3166  -11.2982   27.8826 H         1 <0>         0.0000
     28 H10        44.7389  -10.6013   26.3741 H         1 <0>         0.0000
     29 H11        44.5711   -9.7707   32.0196 H         1 <0>         0.0000
     30 H12        46.3506   -9.7801   32.1269 H         1 <0>         0.0000
     31 H13        43.0323  -10.3332   28.1776 H         1 <0>         0.0000
     32 H14        43.6382   -8.7397   27.6563 H         1 <0>         0.0000
@<TRIPOS>BOND
     1    1    3 ar
     2    1    5 ar
     3    2    4 ar
     4    2    5 ar
     5    3    6 ar
     6    4    6 ar
     7    5   11 1
     8    6   15 1
     9    7    9 1
    10    8   10 1
    11    9   16 1
    12   10   17 1
    13   11   12 1
    14   11   13 2
    15   14   18 2
    16   15   18 1
    17   16   18 1
    18   17   18 1
    19    1   19 1
    20    2   20 1
    21    3   21 1
    22    4   22 1
    23    7   23 1
    24    7   24 1
    25    7   25 1
    26    8   26 1
    27    8   27 1
    28    8   28 1
    29    9   29 1
    30    9   30 1
    31   10   31 1
    32   10   32 1
@<TRIPOS>MOLECULE
*****
   32    32     0     0     0
SMALL
NO_CHARGES

@<TRIPOS>ATOM
      1 C1         50.4959   -7.2426   31.4374 C.ar      1 <0>         0.0000
      2 C2         51.7191   -8.8276   30.0852 C.ar      1 <0>         0.0000
      3 C3         49.3010   -7.8806   31.1043 C.ar      1 <0>         0.0000
      4 C4         50.5242   -9.4656   29.7521 C.ar      1 <0>         0.0000
      5 C5         51.7049   -7.7162   30.9277 C.ar      1 <0>         0.0000
      6 C6         49.3152   -8.9920   30.2616 C.ar      1 <0>         0.0000
      7 C7         44.8313   -8.2584   32.4357 C.3       1 <0>         0.0000
      8 C8         43.9767   -8.9985   28.2427 C.3       1 <0>         0.0000
      9 C9         45.6305   -9.0852   31.4512 C.3       1 <0>         0.0000
     10 C10        44.9891   -9.9904   27.7107 C.3       1 <0>         0.0000
     11 N1         52.9214   -7.0669   31.2665 N.pl3     1 <0>         0.0000
     12 O1         52.8870   -6.0685   32.0260 O.3       1 <0>         0.0000
     13 O2         53.9979   -7.5088   30.7969 O.2       1 <0>         0.0000
     14 O3         47.2805   -7.9816   28.0641 O.2       1 <0>         0.0000
     15 O4         48.1428   -9.6181   29.9349 O.3       1 <0>         0.0000
     16 O5         46.0259   -8.2597   30.3693 O.3       1 <0>         0.0000
     17 O6         46.0047  -10.1789   28.6814 O.3       1 <0>         0.0000
     18 P1         46.9000   -8.9199   29.1746 P.3       1 <0>         0.0000
     19 H1         50.4708   -6.3775   32.0955 H         1 <0>         0.0000
     20 H2         52.6543   -9.2070   29.6804 H         1 <0>         0.0000
     21 H3         48.3623   -7.5073   31.5046 H         1 <0>         0.0000
     22 H4         50.5417  -10.3307   29.0948 H         1 <0>         0.0000
     23 H5         45.4304   -7.4320   32.8281 H         1 <0>         0.0000
     24 H6         43.9347   -7.8496   31.9583 H         1 <0>         0.0000
     25 H7         44.4918   -8.8772   33.2731 H         1 <0>         0.0000
     26 H8         43.5154   -9.3673   29.1631 H         1 <0>         0.0000
     27 H9         44.4522   -8.0337   28.4474 H         1 <0>         0.0000
     28 H10        43.1907   -8.8151   27.5026 H         1 <0>         0.0000
     29 H11        45.0256   -9.9098   31.0626 H         1 <0>         0.0000
     30 H12        46.5262   -9.4923   31.9297 H         1 <0>         0.0000
     31 H13        45.4466   -9.6155   26.7903 H         1 <0>         0.0000
     32 H14        44.5125  -10.9539   27.5075 H         1 <0>         0.0000
@<TRIPOS>BOND
     1    1    3 ar
     2    1    5 ar
     3    2    4 ar
     4    2    5 ar
     5    3    6 ar
     6    4    6 ar
     7    5   11 1
     8    6   15 1
     9    7    9 1
    10    8   10 1
    11    9   16 1
    12   10   17 1
    13   11   12 1
    14   11   13 2
    15   14   18 2
    16   15   18 1
    17   16   18 1
    18   17   18 1
    19    1   19 1
    20    2   20 1
    21    3   21 1
    22    4   22 1
    23    7   23 1
    24    7   24 1
    25    7   25 1
    26    8   26 1
    27    8   27 1
    28    8   28 1
    29    9   29 1
    30    9   30 1
    31   10   31 1
    32   10   32 1
@<TRIPOS>MOLECULE
*****
   32    32     0     0     0
SMALL
NO_CHARGES

@<TRIPOS>ATOM
      1 C1         49.1012  -12.3557   28.3255 C.ar      1 <0>         0.0000
      2 C2         51.0313  -11.3393   29.3642 C.ar      1 <0>         0.0000
      3 C3         48.2649  -11.6597   29.1984 C.ar      1 <0>         0.0000
      4 C4         50.1950  -10.6433   30.2370 C.ar      1 <0>         0.0000
      5 C5         50.4844  -12.1955   28.4085 C.ar      1 <0>         0.0000
      6 C6         48.8118  -10.8036   30.1542 C.ar      1 <0>         0.0000
      7 C7         47.2730   -8.6286   33.5369 C.3       1 <0>         0.0000
      8 C8         44.7145  -10.0195   27.4011 C.3       1 <0>         0.0000
      9 C9         45.9497   -8.2893   32.8845 C.3       1 <0>         0.0000
     10 C10        45.2618   -9.0854   28.4591 C.3       1 <0>         0.0000
     11 N1         51.3360  -12.9040   27.5201 N.pl3     1 <0>         0.0000
     12 O1         50.8240  -13.6693   26.6677 O.3       1 <0>         0.0000
     13 O2         52.5774  -12.7457   27.6120 O.2       1 <0>         0.0000
     14 O3         47.3540   -7.6939   30.2190 O.2       1 <0>         0.0000
     15 O4         47.9912  -10.1207   31.0106 O.3       1 <0>         0.0000
     16 O5         45.7615   -9.1289   31.7585 O.3       1 <0>         0.0000
     17 O6         46.1165   -9.8157   29.3224 O.3       1 <0>         0.0000
     18 P1         46.8511   -9.0684   30.5601 P.3       1 <0>         0.0000
     19 H1         48.6620  -13.0196   27.5850 H         1 <0>         0.0000
     20 H2         52.1075  -11.2054   29.4401 H         1 <0>         0.0000
     21 H3         47.1882  -11.7885   29.1288 H         1 <0>         0.0000
     22 H4         50.6269   -9.9780   30.9797 H         1 <0>         0.0000
     23 H5         47.2874   -9.6695   33.8715 H         1 <0>         0.0000
     24 H6         48.1001   -8.4706   32.8370 H         1 <0>         0.0000
     25 H7         47.4565   -7.9779   34.3983 H         1 <0>         0.0000
     26 H8         45.5237  -10.4525   26.8065 H         1 <0>         0.0000
     27 H9         44.1410  -10.8306   27.8615 H         1 <0>         0.0000
     28 H10        44.0309   -9.4864   26.7320 H         1 <0>         0.0000
     29 H11        45.9419   -7.2469   32.5520 H         1 <0>         0.0000
     30 H12        45.1243   -8.4483   33.5848 H         1 <0>         0.0000
     31 H13        44.4475   -8.6558   29.0501 H         1 <0>         0.0000
     32 H14        45.8352   -8.2760   27.9974 H         1 <0>         0.0000
@<TRIPOS>BOND
     1    1    3 ar
     2    1    5 ar
     3    2    4 ar
     4    2    5 ar
     5    3    6 ar
     6    4    6 ar
     7    5   11 1
     8    6   15 1
     9    7    9 1
    10    8   10 1
    11    9   16 1
    12   10   17 1
    13   11   12 1
    14   11   13 2
    15   14   18 2
    16   15   18 1
    17   16   18 1
    18   17   18 1
    19    1   19 1
    20    2   20 1
    21    3   21 1
    22    4   22 1
    23    7   23 1
    24    7   24 1
    25    7   25 1
    26    8   26 1
    27    8   27 1
    28    8   28 1
    29    9   29 1
    30    9   30 1
    31   10   31 1
    32   10   32 1
@<TRIPOS>MOLECULE
*****
   32    32     0     0     0
SMALL
NO_CHARGES

@<TRIPOS>ATOM
      1 C1         50.1426   -7.7841   30.6281 C.ar      1 <0>         0.0000
      2 C2         50.6861   -9.7837   29.3860 C.ar      1 <0>         0.0000
      3 C3         48.7837   -8.0403   30.4460 C.ar      1 <0>         0.0000
      4 C4         49.3272  -10.0400   29.2039 C.ar      1 <0>         0.0000
      5 C5         51.0939   -8.6558   30.0982 C.ar      1 <0>         0.0000
      6 C6         48.3760   -9.1682   29.7339 C.ar      1 <0>         0.0000
      7 C7         43.7311   -7.8854   32.2134 C.3       1 <0>         0.0000
      8 C8         44.9529   -9.5784   27.3841 C.3       1 <0>         0.0000
      9 C9         45.2041   -7.7526   32.5364 C.3       1 <0>         0.0000
     10 C10        43.9348   -9.1735   28.4287 C.3       1 <0>         0.0000
     11 N1         52.4774   -8.3951   30.2831 N.pl3     1 <0>         0.0000
     12 O1         52.8233   -7.3750   30.9267 O.3       1 <0>         0.0000
     13 O2         53.3166   -9.1920   29.7977 O.2       1 <0>         0.0000
     14 O3         45.8413   -7.0796   29.6085 O.2       1 <0>         0.0000
     15 O4         47.0425   -9.4197   29.5553 O.3       1 <0>         0.0000
     16 O5         45.9377   -8.6535   31.7249 O.3       1 <0>         0.0000
     17 O6         44.5082   -9.3265   29.7159 O.3       1 <0>         0.0000
     18 P1         45.8420   -8.4946   30.1147 P.3       1 <0>         0.0000
     19 H1         50.4470   -6.9015   31.1854 H         1 <0>         0.0000
     20 H2         51.4169  -10.4713   28.9670 H         1 <0>         0.0000
     21 H3         48.0473   -7.3577   30.8615 H         1 <0>         0.0000
     22 H4         49.0157  -10.9201   28.6479 H         1 <0>         0.0000
     23 H5         43.5385   -7.6458   31.1640 H         1 <0>         0.0000
     24 H6         43.3824   -8.9039   32.4133 H         1 <0>         0.0000
     25 H7         43.1361   -7.2160   32.8435 H         1 <0>         0.0000
     26 H8         45.8458   -8.9501   27.4454 H         1 <0>         0.0000
     27 H9         45.2469  -10.6248   27.5170 H         1 <0>         0.0000
     28 H10        44.5287   -9.4923   26.3782 H         1 <0>         0.0000
     29 H11        45.3898   -7.9935   33.5873 H         1 <0>         0.0000
     30 H12        45.5510   -6.7346   32.3353 H         1 <0>         0.0000
     31 H13        43.0444   -9.8055   28.3621 H         1 <0>         0.0000
     32 H14        43.6427   -8.1276   28.2951 H         1 <0>         0.0000
@<TRIPOS>BOND
     1    1    3 ar
     2    1    5 ar
     3    2    4 ar
     4    2    5 ar
     5    3    6 ar
     6    4    6 ar
     7    5   11 1
     8    6   15 1
     9    7    9 1
    10    8   10 1
    11    9   16 1
    12   10   17 1
    13   11   12 1
    14   11   13 2
    15   14   18 2
    16   15   18 1
    17   16   18 1
    18   17   18 1
    19    1   19 1
    20    2   20 1
    21    3   21 1
    22    4   22 1
    23    7   23 1
    24    7   24 1
    25    7   25 1
    26    8   26 1
    27    8   27 1
    28    8   28 1
    29    9   29 1
    30    9   30 1
    31   10   31 1
    32   10   32 1
@<TRIPOS>MOLECULE
*****
   32    32     0     0     0
SMALL
NO_CHARGES

@<TRIPOS>ATOM
      1 C1         50.5098   -8.3103   30.3936 C.ar      1 <0>         0.0000
      2 C2         50.7425  -10.5483   29.5135 C.ar      1 <0>         0.0000
      3 C3         49.1371   -8.3575   30.1508 C.ar      1 <0>         0.0000
      4 C4         49.3697  -10.5954   29.2706 C.ar      1 <0>         0.0000
      5 C5         51.3125   -9.4057   30.0749 C.ar      1 <0>         0.0000
      6 C6         48.5670   -9.5000   29.5893 C.ar      1 <0>         0.0000
      7 C7         44.8394   -7.6800   32.7559 C.3       1 <0>         0.0000
      8 C8         44.2416   -8.8671   27.7714 C.3       1 <0>         0.0000
      9 C9         45.4725   -9.0548   32.7316 C.3       1 <0>         0.0000
     10 C10        44.4209  -10.0771   28.6632 C.3       1 <0>         0.0000
     11 N1         52.7100   -9.3579   30.3218 N.pl3     1 <0>         0.0000
     12 O1         53.2031   -8.3207   30.8274 O.3       1 <0>         0.0000
     13 O2         53.4140  -10.3540   30.0272 O.2       1 <0>         0.0000
     14 O3         45.9359   -7.3099   29.8718 O.2       1 <0>         0.0000
     15 O4         47.2201   -9.5463   29.3511 O.3       1 <0>         0.0000
     16 O5         46.4975   -9.0737   31.7531 O.3       1 <0>         0.0000
     17 O6         44.7572   -9.6420   29.9695 O.3       1 <0>         0.0000
     18 P1         46.0992   -8.7644   30.2126 P.3       1 <0>         0.0000
     19 H1         50.9414   -7.4138   30.8320 H         1 <0>         0.0000
     20 H2         51.3564  -11.4089   29.2597 H         1 <0>         0.0000
     21 H3         48.5169   -7.5011   30.4014 H         1 <0>         0.0000
     22 H4         48.9315  -11.4881   28.8327 H         1 <0>         0.0000
     23 H5         45.5781   -6.9147   33.0097 H         1 <0>         0.0000
     24 H6         44.4012   -7.4394   31.7818 H         1 <0>         0.0000
     25 H7         44.0262   -7.6427   33.4885 H         1 <0>         0.0000
     26 H8         43.4386   -8.2243   28.1425 H         1 <0>         0.0000
     27 H9         45.1669   -8.2838   27.7214 H         1 <0>         0.0000
     28 H10        44.0035   -9.1743   26.7476 H         1 <0>         0.0000
     29 H11        44.7285   -9.8155   32.4772 H         1 <0>         0.0000
     30 H12        45.9104   -9.2933   33.7054 H         1 <0>         0.0000
     31 H13        45.2254  -10.7157   28.2865 H         1 <0>         0.0000
     32 H14        43.4953  -10.6583   28.7126 H         1 <0>         0.0000
@<TRIPOS>BOND
     1    1    3 ar
     2    1    5 ar
     3    2    4 ar
     4    2    5 ar
     5    3    6 ar
     6    4    6 ar
     7    5   11 1
     8    6   15 1
     9    7    9 1
    10    8   10 1
    11    9   16 1
    12   10   17 1
    13   11   12 1
    14   11   13 2
    15   14   18 2
    16   15   18 1
    17   16   18 1
    18   17   18 1
    19    1   19 1
    20    2   20 1
    21    3   21 1
    22    4   22 1
    23    7   23 1
    24    7   24 1
    25    7   25 1
    26    8   26 1
    27    8   27 1
    28    8   28 1
    29    9   29 1
    30    9   30 1
    31   10   31 1
    32   10   32 1
@<TRIPOS>MOLECULE
*****
   32    32     0     0     0
SMALL
NO_CHARGES

@<TRIPOS>ATOM
      1 C1         50.7332   -9.4087   28.9969 C.ar      1 <0>         0.0000
      2 C2         50.3735  -11.6978   29.6808 C.ar      1 <0>         0.0000
      3 C3         49.3562   -9.1874   29.0132 C.ar      1 <0>         0.0000
      4 C4         48.9965  -11.4765   29.6971 C.ar      1 <0>         0.0000
      5 C5         51.2419  -10.6639   29.3306 C.ar      1 <0>         0.0000
      6 C6         48.4878  -10.2213   29.3633 C.ar      1 <0>         0.0000
      7 C7         44.8382   -8.1889   32.8157 C.3       1 <0>         0.0000
      8 C8         44.8969   -9.0090   27.6191 C.3       1 <0>         0.0000
      9 C9         46.2955   -8.5917   32.8927 C.3       1 <0>         0.0000
     10 C10        44.1920   -8.5651   28.8831 C.3       1 <0>         0.0000
     11 N1         52.6437  -10.8896   29.3138 N.pl3     1 <0>         0.0000
     12 O1         53.4078   -9.9463   28.9959 O.3       1 <0>         0.0000
     13 O2         53.0803  -12.0263   29.6170 O.2       1 <0>         0.0000
     14 O3         46.8063   -7.4878   30.0729 O.2       1 <0>         0.0000
     15 O4         47.1366  -10.0041   29.3795 O.3       1 <0>         0.0000
     16 O5         46.5920   -9.4604   31.8131 O.3       1 <0>         0.0000
     17 O6         44.8140   -9.1797   29.9986 O.3       1 <0>         0.0000
     18 P1         46.3844   -8.9119   30.3021 P.3       1 <0>         0.0000
     19 H1         51.3991   -8.5941   28.7224 H         1 <0>         0.0000
     20 H2         50.7565  -12.6811   29.9426 H         1 <0>         0.0000
     21 H3         48.9659   -8.2073   28.7525 H         1 <0>         0.0000
     22 H4         48.3250  -12.2859   29.9704 H         1 <0>         0.0000
     23 H5         44.6269   -7.6659   31.8789 H         1 <0>         0.0000
     24 H6         44.1904   -9.0690   32.8832 H         1 <0>         0.0000
     25 H7         44.5741   -7.5344   33.6529 H         1 <0>         0.0000
     26 H8         45.9503   -8.7162   27.6364 H         1 <0>         0.0000
     27 H9         44.8338  -10.0960   27.5034 H         1 <0>         0.0000
     28 H10        44.4218   -8.5669   26.7369 H         1 <0>         0.0000
     29 H11        46.5000   -9.1142   33.8320 H         1 <0>         0.0000
     30 H12        46.9413   -7.7112   32.8244 H         1 <0>         0.0000
     31 H13        43.1390   -8.8609   28.8594 H         1 <0>         0.0000
     32 H14        44.2567   -7.4790   28.9976 H         1 <0>         0.0000
@<TRIPOS>BOND
     1    1    3 ar
     2    1    5 ar
     3    2    4 ar
     4    2    5 ar
     5    3    6 ar
     6    4    6 ar
     7    5   11 1
     8    6   15 1
     9    7    9 1
    10    8   10 1
    11    9   16 1
    12   10   17 1
    13   11   12 1
    14   11   13 2
    15   14   18 2
    16   15   18 1
    17   16   18 1
    18   17   18 1
    19    1   19 1
    20    2   20 1
    21    3   21 1
    22    4   22 1
    23    7   23 1
    24    7   24 1
    25    7   25 1
    26    8   26 1
    27    8   27 1
    28    8   28 1
    29    9   29 1
    30    9   30 1
    31   10   31 1
    32   10   32 1
@<TRIPOS>MOLECULE
*****
   32    32     0     0     0
SMALL
NO_CHARGES

@<TRIPOS>ATOM
      1 C1         50.5643   -7.5084   30.4567 C.ar      1 <0>         0.0000
      2 C2         51.2045   -9.7040   29.6778 C.ar      1 <0>         0.0000
      3 C3         49.2396   -7.7709   30.1077 C.ar      1 <0>         0.0000
      4 C4         49.8798   -9.9664   29.3287 C.ar      1 <0>         0.0000
      5 C5         51.5468   -8.4749   30.2417 C.ar      1 <0>         0.0000
      6 C6         48.8973   -8.9998   29.5437 C.ar      1 <0>         0.0000
      7 C7         44.6861   -7.6997   32.3384 C.3       1 <0>         0.0000
      8 C8         44.6935   -9.0788   27.3675 C.3       1 <0>         0.0000
      9 C9         45.5190   -8.9616   32.4132 C.3       1 <0>         0.0000
     10 C10        44.9778  -10.2263   28.3131 C.3       1 <0>         0.0000
     11 N1         52.8955   -8.2080   30.5967 N.pl3     1 <0>         0.0000
     12 O1         53.1825   -7.0962   31.1026 O.3       1 <0>         0.0000
     13 O2         53.7637   -9.0912   30.3944 O.2       1 <0>         0.0000
     14 O3         45.9518   -7.2326   29.5389 O.2       1 <0>         0.0000
     15 O4         47.5975   -9.2574   29.2014 O.3       1 <0>         0.0000
     16 O5         46.6134   -8.8458   31.5202 O.3       1 <0>         0.0000
     17 O6         45.1341   -9.7148   29.6257 O.3       1 <0>         0.0000
     18 P1         46.3034   -8.6367   29.9431 P.3       1 <0>         0.0000
     19 H1         50.8176   -6.5465   30.8958 H         1 <0>         0.0000
     20 H2         51.9603  -10.4661   29.5042 H         1 <0>         0.0000
     21 H3         48.4786   -7.0140   30.2779 H         1 <0>         0.0000
     22 H4         49.6193  -10.9255   28.8895 H         1 <0>         0.0000
     23 H5         45.2771   -6.8247   32.6226 H         1 <0>         0.0000
     24 H6         44.2998   -7.5515   31.3247 H         1 <0>         0.0000
     25 H7         43.8181   -7.7706   33.0025 H         1 <0>         0.0000
     26 H8         43.7745   -8.5583   27.6508 H         1 <0>         0.0000
     27 H9         45.5212   -8.3621   27.3703 H         1 <0>         0.0000
     28 H10        44.5909   -9.4424   26.3396 H         1 <0>         0.0000
     29 H11        44.9221   -9.8329   32.1278 H         1 <0>         0.0000
     30 H12        45.9048   -9.1077   33.4265 H         1 <0>         0.0000
     31 H13        45.8981  -10.7426   28.0242 H         1 <0>         0.0000
     32 H14        44.1496  -10.9411   28.3096 H         1 <0>         0.0000
@<TRIPOS>BOND
     1    1    3 ar
     2    1    5 ar
     3    2    4 ar
     4    2    5 ar
     5    3    6 ar
     6    4    6 ar
     7    5   11 1
     8    6   15 1
     9    7    9 1
    10    8   10 1
    11    9   16 1
    12   10   17 1
    13   11   12 1
    14   11   13 2
    15   14   18 2
    16   15   18 1
    17   16   18 1
    18   17   18 1
    19    1   19 1
    20    2   20 1
    21    3   21 1
    22    4   22 1
    23    7   23 1
    24    7   24 1
    25    7   25 1
    26    8   26 1
    27    8   27 1
    28    8   28 1
    29    9   29 1
    30    9   30 1
    31   10   31 1
    32   10   32 1
@<TRIPOS>MOLECULE
*****
   32    32     0     0     0
SMALL
NO_CHARGES

@<TRIPOS>ATOM
      1 C1         51.3467  -10.4552   28.9098 C.ar      1 <0>         0.0000
      2 C2         49.8855  -12.3777   28.9860 C.ar      1 <0>         0.0000
      3 C3         50.3849   -9.6977   29.5781 C.ar      1 <0>         0.0000
      4 C4         48.9237  -11.6203   29.6544 C.ar      1 <0>         0.0000
      5 C5         51.0970  -11.7952   28.6136 C.ar      1 <0>         0.0000
      6 C6         49.1734  -10.2803   29.9505 C.ar      1 <0>         0.0000
      7 C7         45.0940   -8.3302   33.2593 C.3       1 <0>         0.0000
      8 C8         45.2724   -8.4489   27.4080 C.3       1 <0>         0.0000
      9 C9         45.9977   -9.0083   32.2517 C.3       1 <0>         0.0000
     10 C10        44.9560   -9.4423   28.5057 C.3       1 <0>         0.0000
     11 N1         52.0758  -12.5666   27.9329 N.pl3     1 <0>         0.0000
     12 O1         53.1589  -12.0236   27.6067 O.3       1 <0>         0.0000
     13 O2         51.8307  -13.7701   27.6759 O.2       1 <0>         0.0000
     14 O3         47.5469   -7.6011   28.9610 O.2       1 <0>         0.0000
     15 O4         48.2298   -9.5370   30.6065 O.3       1 <0>         0.0000
     16 O5         46.1362   -8.1695   31.1179 O.3       1 <0>         0.0000
     17 O6         46.1601   -9.8092   29.1574 O.3       1 <0>         0.0000
     18 P1         47.0635   -8.6789   29.8900 P.3       1 <0>         0.0000
     19 H1         52.2869   -9.9891   28.6255 H         1 <0>         0.0000
     20 H2         49.6775  -13.4210   28.7610 H         1 <0>         0.0000
     21 H3         50.5852   -8.6545   29.8064 H         1 <0>         0.0000
     22 H4         47.9818  -12.0796   29.9416 H         1 <0>         0.0000
     23 H5         45.5169   -7.3747   33.5817 H         1 <0>         0.0000
     24 H6         44.1028   -8.1512   32.8299 H         1 <0>         0.0000
     25 H7         44.9498   -8.9672   34.1383 H         1 <0>         0.0000
     26 H8         45.7352   -7.5475   27.8191 H         1 <0>         0.0000
     27 H9         45.9516   -8.8907   26.6715 H         1 <0>         0.0000
     28 H10        44.3616   -8.1647   26.8706 H         1 <0>         0.0000
     29 H11        45.5690   -9.9632   31.9334 H         1 <0>         0.0000
     30 H12        46.9877   -9.1857   32.6821 H         1 <0>         0.0000
     31 H13        44.4933  -10.3414   28.0879 H         1 <0>         0.0000
     32 H14        44.2780   -8.9990   29.2411 H         1 <0>         0.0000
@<TRIPOS>BOND
     1    1    3 ar
     2    1    5 ar
     3    2    4 ar
     4    2    5 ar
     5    3    6 ar
     6    4    6 ar
     7    5   11 1
     8    6   15 1
     9    7    9 1
    10    8   10 1
    11    9   16 1
    12   10   17 1
    13   11   12 1
    14   11   13 2
    15   14   18 2
    16   15   18 1
    17   16   18 1
    18   17   18 1
    19    1   19 1
    20    2   20 1
    21    3   21 1
    22    4   22 1
    23    7   23 1
    24    7   24 1
    25    7   25 1
    26    8   26 1
    27    8   27 1
    28    8   28 1
    29    9   29 1
    30    9   30 1
    31   10   31 1
    32   10   32 1
@<TRIPOS>MOLECULE
*****
   32    32     0     0     0
SMALL
NO_CHARGES

@<TRIPOS>ATOM
      1 C1         49.3361  -11.7359   28.7670 C.ar      1 <0>         0.0000
      2 C2         50.8903  -10.2867   29.9163 C.ar      1 <0>         0.0000
      3 C3         48.2799  -11.1685   29.4797 C.ar      1 <0>         0.0000
      4 C4         49.8340   -9.7192   30.6290 C.ar      1 <0>         0.0000
      5 C5         50.6414  -11.2951   28.9854 C.ar      1 <0>         0.0000
      6 C6         48.5289  -10.1601   30.4107 C.ar      1 <0>         0.0000
      7 C7         46.1929   -8.1278   33.4031 C.3       1 <0>         0.0000
      8 C8         44.7302  -10.3968   27.1708 C.3       1 <0>         0.0000
      9 C9         44.9201   -8.1050   32.5836 C.3       1 <0>         0.0000
     10 C10        44.9519   -9.3056   28.1963 C.3       1 <0>         0.0000
     11 N1         51.7169  -11.8727   28.2601 N.pl3     1 <0>         0.0000
     12 O1         51.4715  -12.7787   27.4274 O.3       1 <0>         0.0000
     13 O2         52.8834  -11.4617   28.4722 O.2       1 <0>         0.0000
     14 O3         46.5024   -7.4108   30.0447 O.2       1 <0>         0.0000
     15 O4         47.4924   -9.6033   31.1099 O.3       1 <0>         0.0000
     16 O5         45.0382   -9.0357   31.5216 O.3       1 <0>         0.0000
     17 O6         45.8178   -9.7916   29.2079 O.3       1 <0>         0.0000
     18 P1         46.2356   -8.8337   30.4480 P.3       1 <0>         0.0000
     19 H1         49.1283  -12.5209   28.0440 H         1 <0>         0.0000
     20 H2         51.9028   -9.9339   30.0968 H         1 <0>         0.0000
     21 H3         47.2652  -11.5160   29.3050 H         1 <0>         0.0000
     22 H4         50.0343   -8.9342   31.3532 H         1 <0>         0.0000
     23 H5         46.3661   -9.1208   33.8270 H         1 <0>         0.0000
     24 H6         47.0542   -7.8515   32.7861 H         1 <0>         0.0000
     25 H7         46.1394   -7.3996   34.2192 H         1 <0>         0.0000
     26 H8         45.6750  -10.6949   26.7079 H         1 <0>         0.0000
     27 H9         44.2713  -11.2756   27.6354 H         1 <0>         0.0000
     28 H10        44.0449  -10.0565   26.3874 H         1 <0>         0.0000
     29 H11        44.7528   -7.1091   32.1625 H         1 <0>         0.0000
     30 H12        44.0607   -8.3820   33.2014 H         1 <0>         0.0000
     31 H13        44.0032   -9.0121   28.6556 H         1 <0>         0.0000
     32 H14        45.4112   -8.4285   27.7307 H         1 <0>         0.0000
@<TRIPOS>BOND
     1    1    3 ar
     2    1    5 ar
     3    2    4 ar
     4    2    5 ar
     5    3    6 ar
     6    4    6 ar
     7    5   11 1
     8    6   15 1
     9    7    9 1
    10    8   10 1
    11    9   16 1
    12   10   17 1
    13   11   12 1
    14   11   13 2
    15   14   18 2
    16   15   18 1
    17   16   18 1
    18   17   18 1
    19    1   19 1
    20    2   20 1
    21    3   21 1
    22    4   22 1
    23    7   23 1
    24    7   24 1
    25    7   25 1
    26    8   26 1
    27    8   27 1
    28    8   28 1
    29    9   29 1
    30    9   30 1
    31   10   31 1
    32   10   32 1
@<TRIPOS>MOLECULE
*****
   32    32     0     0     0
SMALL
NO_CHARGES

@<TRIPOS>ATOM
      1 C1         50.3366   -8.4268   29.6550 C.ar      1 <0>         0.0000
      2 C2         50.4303  -10.8357   29.4960 C.ar      1 <0>         0.0000
      3 C3         48.9472   -8.4734   29.5426 C.ar      1 <0>         0.0000
      4 C4         49.0408  -10.8824   29.3837 C.ar      1 <0>         0.0000
      5 C5         51.0783   -9.6079   29.6317 C.ar      1 <0>         0.0000
      6 C6         48.2992   -9.7012   29.4069 C.ar      1 <0>         0.0000
      7 C7         46.0522   -7.9979   33.1993 C.3       1 <0>         0.0000
      8 C8         44.7613  -10.4821   27.3380 C.3       1 <0>         0.0000
      9 C9         45.8738   -8.7582   31.9024 C.3       1 <0>         0.0000
     10 C10        43.8870   -9.4572   28.0285 C.3       1 <0>         0.0000
     11 N1         52.4928   -9.5608   29.7458 N.pl3     1 <0>         0.0000
     12 O1         53.0564   -8.4463   29.8669 O.3       1 <0>         0.0000
     13 O2         53.1410  -10.6351   29.7221 O.2       1 <0>         0.0000
     14 O3         46.2105   -7.4626   28.2118 O.2       1 <0>         0.0000
     15 O4         46.9358   -9.7469   29.2969 O.3       1 <0>         0.0000
     16 O5         46.0952   -7.8758   30.8159 O.3       1 <0>         0.0000
     17 O6         44.4762   -9.1089   29.2697 O.3       1 <0>         0.0000
     18 P1         45.9613   -8.4584   29.3093 P.3       1 <0>         0.0000
     19 H1         50.8292   -7.4633   29.7605 H         1 <0>         0.0000
     20 H2         50.9961  -11.7640   29.4758 H         1 <0>         0.0000
     21 H3         48.3747   -7.5500   29.5617 H         1 <0>         0.0000
     22 H4         48.5417  -11.8418   29.2779 H         1 <0>         0.0000
     23 H5         47.0653   -7.5940   33.2786 H         1 <0>         0.0000
     24 H6         45.3362   -7.1720   33.2643 H         1 <0>         0.0000
     25 H7         45.8639   -8.6506   34.0582 H         1 <0>         0.0000
     26 H8         45.7603  -10.0792   27.1493 H         1 <0>         0.0000
     27 H9         44.8541  -11.3853   27.9501 H         1 <0>         0.0000
     28 H10        44.3179  -10.7880   26.3846 H         1 <0>         0.0000
     29 H11        44.8585   -9.1594   31.8294 H         1 <0>         0.0000
     30 H12        46.5904   -9.5825   31.8389 H         1 <0>         0.0000
     31 H13        42.8896   -9.8664   28.2143 H         1 <0>         0.0000
     32 H14        43.7959   -8.5552   27.4160 H         1 <0>         0.0000
@<TRIPOS>BOND
     1    1    3 ar
     2    1    5 ar
     3    2    4 ar
     4    2    5 ar
     5    3    6 ar
     6    4    6 ar
     7    5   11 1
     8    6   15 1
     9    7    9 1
    10    8   10 1
    11    9   16 1
    12   10   17 1
    13   11   12 1
    14   11   13 2
    15   14   18 2
    16   15   18 1
    17   16   18 1
    18   17   18 1
    19    1   19 1
    20    2   20 1
    21    3   21 1
    22    4   22 1
    23    7   23 1
    24    7   24 1
    25    7   25 1
    26    8   26 1
    27    8   27 1
    28    8   28 1
    29    9   29 1
    30    9   30 1
    31   10   31 1
    32   10   32 1
@<TRIPOS>MOLECULE
*****
   32    32     0     0     0
SMALL
NO_CHARGES

@<TRIPOS>ATOM
      1 C1         50.5867   -6.5447   30.9862 C.ar      1 <0>         0.0000
      2 C2         51.9225   -8.4365   30.2978 C.ar      1 <0>         0.0000
      3 C3         49.4245   -7.2722   30.7303 C.ar      1 <0>         0.0000
      4 C4         50.7603   -9.1641   30.0421 C.ar      1 <0>         0.0000
      5 C5         51.8357   -7.1267   30.7699 C.ar      1 <0>         0.0000
      6 C6         49.5112   -8.5819   30.2583 C.ar      1 <0>         0.0000
      7 C7         45.6606   -8.5480   33.2359 C.3       1 <0>         0.0000
      8 C8         44.7060   -8.7860   27.4638 C.3       1 <0>         0.0000
      9 C9         46.4484   -9.0955   32.0648 C.3       1 <0>         0.0000
     10 C10        44.7788   -9.7892   28.5953 C.3       1 <0>         0.0000
     11 N1         53.0191   -6.3863   31.0300 N.pl3     1 <0>         0.0000
     12 O1         52.9193   -5.2096   31.4541 O.3       1 <0>         0.0000
     13 O2         54.1325   -6.9288   30.8284 O.2       1 <0>         0.0000
     14 O3         47.0695   -7.5397   28.5431 O.2       1 <0>         0.0000
     15 O4         48.3708   -9.2958   30.0075 O.3       1 <0>         0.0000
     16 O5         46.2220   -8.2747   30.9320 O.3       1 <0>         0.0000
     17 O6         46.1309   -9.9383   28.9938 O.3       1 <0>         0.0000
     18 P1         46.9617   -8.6577   29.5415 P.3       1 <0>         0.0000
     19 H1         50.5050   -5.5248   31.3543 H         1 <0>         0.0000
     20 H2         52.8895   -8.9022   30.1244 H         1 <0>         0.0000
     21 H3         48.4544   -6.8135   30.9011 H         1 <0>         0.0000
     22 H4         50.8343  -10.1837   29.6741 H         1 <0>         0.0000
     23 H5         45.9753   -7.5284   33.4752 H         1 <0>         0.0000
     24 H6         44.5888   -8.5438   33.0120 H         1 <0>         0.0000
     25 H7         45.7983   -9.1773   34.1214 H         1 <0>         0.0000
     26 H8         45.0856   -7.8111   27.7819 H         1 <0>         0.0000
     27 H9         45.2911   -9.1301   26.6046 H         1 <0>         0.0000
     28 H10        43.6735   -8.6678   27.1190 H         1 <0>         0.0000
     29 H11        46.1288  -10.1154   31.8307 H         1 <0>         0.0000
     30 H12        47.5190   -9.0983   32.2899 H         1 <0>         0.0000
     31 H13        44.3978  -10.7620   28.2707 H         1 <0>         0.0000
     32 H14        44.1945   -9.4435   29.4532 H         1 <0>         0.0000
@<TRIPOS>BOND
     1    1    3 ar
     2    1    5 ar
     3    2    4 ar
     4    2    5 ar
     5    3    6 ar
     6    4    6 ar
     7    5   11 1
     8    6   15 1
     9    7    9 1
    10    8   10 1
    11    9   16 1
    12   10   17 1
    13   11   12 1
    14   11   13 2
    15   14   18 2
    16   15   18 1
    17   16   18 1
    18   17   18 1
    19    1   19 1
    20    2   20 1
    21    3   21 1
    22    4   22 1
    23    7   23 1
    24    7   24 1
    25    7   25 1
    26    8   26 1
    27    8   27 1
    28    8   28 1
    29    9   29 1
    30    9   30 1
    31   10   31 1
    32   10   32 1
@<TRIPOS>MOLECULE
*****
   32    32     0     0     0
SMALL
NO_CHARGES

@<TRIPOS>ATOM
      1 C1         51.1550  -11.2514   28.9679 C.ar      1 <0>         0.0000
      2 C2         49.7113  -12.8387   27.8575 C.ar      1 <0>         0.0000
      3 C3         50.0610  -10.7494   29.6728 C.ar      1 <0>         0.0000
      4 C4         48.6173  -12.3369   28.5623 C.ar      1 <0>         0.0000
      5 C5         50.9802  -12.2960   28.0603 C.ar      1 <0>         0.0000
      6 C6         48.7922  -11.2922   29.4700 C.ar      1 <0>         0.0000
      7 C7         45.5928   -8.3359   33.1839 C.3       1 <0>         0.0000
      8 C8         44.0525   -8.5955   28.6438 C.3       1 <0>         0.0000
      9 C9         46.5914   -8.6195   32.0821 C.3       1 <0>         0.0000
     10 C10        44.8852   -9.5584   27.8247 C.3       1 <0>         0.0000
     11 N1         52.0936  -12.8070   27.3424 N.pl3     1 <0>         0.0000
     12 O1         53.2266  -12.3049   27.5393 O.3       1 <0>         0.0000
     13 O2         51.9142  -13.7467   26.5304 O.2       1 <0>         0.0000
     14 O3         47.4923   -8.4495   29.0012 O.2       1 <0>         0.0000
     15 O4         47.7187  -10.7997   30.1617 O.3       1 <0>         0.0000
     16 O5         45.9114   -9.1935   30.9793 O.3       1 <0>         0.0000
     17 O6         45.6964  -10.3257   28.6980 O.3       1 <0>         0.0000
     18 P1         46.7714   -9.5896   29.6637 P.3       1 <0>         0.0000
     19 H1         52.1386  -10.8196   29.1357 H         1 <0>         0.0000
     20 H2         49.5606  -13.6528   27.1527 H         1 <0>         0.0000
     21 H3         50.2035   -9.9358   30.3789 H         1 <0>         0.0000
     22 H4         47.6312  -12.7635   28.3997 H         1 <0>         0.0000
     23 H5         44.8253   -7.6349   32.8440 H         1 <0>         0.0000
     24 H6         45.1067   -9.2606   33.5118 H         1 <0>         0.0000
     25 H7         46.0948   -7.9122   34.0601 H         1 <0>         0.0000
     26 H8         43.4033   -9.1350   29.3392 H         1 <0>         0.0000
     27 H9         44.6958   -7.9175   29.2143 H         1 <0>         0.0000
     28 H10        43.4314   -7.9719   27.9923 H         1 <0>         0.0000
     29 H11        47.3561   -9.3211   32.4286 H         1 <0>         0.0000
     30 H12        47.0755   -7.6944   31.7551 H         1 <0>         0.0000
     31 H13        45.5322   -9.0125   27.1314 H         1 <0>         0.0000
     32 H14        44.2410  -10.2355   27.2560 H         1 <0>         0.0000
@<TRIPOS>BOND
     1    1    3 ar
     2    1    5 ar
     3    2    4 ar
     4    2    5 ar
     5    3    6 ar
     6    4    6 ar
     7    5   11 1
     8    6   15 1
     9    7    9 1
    10    8   10 1
    11    9   16 1
    12   10   17 1
    13   11   12 1
    14   11   13 2
    15   14   18 2
    16   15   18 1
    17   16   18 1
    18   17   18 1
    19    1   19 1
    20    2   20 1
    21    3   21 1
    22    4   22 1
    23    7   23 1
    24    7   24 1
    25    7   25 1
    26    8   26 1
    27    8   27 1
    28    8   28 1
    29    9   29 1
    30    9   30 1
    31   10   31 1
    32   10   32 1
@<TRIPOS>MOLECULE
*****
   32    32     0     0     0
SMALL
NO_CHARGES

@<TRIPOS>ATOM
      1 C1         50.7967   -9.4367   29.2420 C.ar      1 <0>         0.0000
      2 C2         50.4098  -11.5428   30.3607 C.ar      1 <0>         0.0000
      3 C3         49.4204   -9.2572   29.1037 C.ar      1 <0>         0.0000
      4 C4         49.0335  -11.3633   30.2224 C.ar      1 <0>         0.0000
      5 C5         51.2914  -10.5794   29.8704 C.ar      1 <0>         0.0000
      6 C6         48.5388  -10.2206   29.5938 C.ar      1 <0>         0.0000
      7 C7         47.4168   -8.8049   33.8393 C.3       1 <0>         0.0000
      8 C8         44.8579   -8.5798   27.3962 C.3       1 <0>         0.0000
      9 C9         47.5487   -8.4807   32.3665 C.3       1 <0>         0.0000
     10 C10        44.4817   -9.6406   28.4086 C.3       1 <0>         0.0000
     11 N1         52.6925  -10.7625   30.0113 N.pl3     1 <0>         0.0000
     12 O1         53.4686   -9.8841   29.5633 O.3       1 <0>         0.0000
     13 O2         53.1164  -11.7979   30.5794 O.2       1 <0>         0.0000
     14 O3         46.7710   -7.4497   29.5802 O.2       1 <0>         0.0000
     15 O4         47.1883  -10.0445   29.4582 O.3       1 <0>         0.0000
     16 O5         46.4377   -9.0224   31.6733 O.3       1 <0>         0.0000
     17 O6         44.8126   -9.1777   29.7068 O.3       1 <0>         0.0000
     18 P1         46.3491   -8.8066   30.0693 P.3       1 <0>         0.0000
     19 H1         51.4730   -8.6779   28.8557 H         1 <0>         0.0000
     20 H2         50.7818  -12.4384   30.8522 H         1 <0>         0.0000
     21 H3         49.0410   -8.3647   28.6134 H         1 <0>         0.0000
     22 H4         48.3517  -12.1175   30.6059 H         1 <0>         0.0000
     23 H5         46.5021   -8.3720   34.2538 H         1 <0>         0.0000
     24 H6         47.3976   -9.8884   33.9958 H         1 <0>         0.0000
     25 H7         48.2754   -8.4178   34.3979 H         1 <0>         0.0000
     26 H8         44.3135   -7.6503   27.5844 H         1 <0>         0.0000
     27 H9         45.9326   -8.3740   27.4339 H         1 <0>         0.0000
     28 H10        44.6345   -8.9203   26.3796 H         1 <0>         0.0000
     29 H11        48.4655   -8.9165   31.9582 H         1 <0>         0.0000
     30 H12        47.5669   -7.3978   32.2118 H         1 <0>         0.0000
     31 H13        45.0297  -10.5676   28.2148 H         1 <0>         0.0000
     32 H14        43.4076   -9.8445   28.3701 H         1 <0>         0.0000
@<TRIPOS>BOND
     1    1    3 ar
     2    1    5 ar
     3    2    4 ar
     4    2    5 ar
     5    3    6 ar
     6    4    6 ar
     7    5   11 1
     8    6   15 1
     9    7    9 1
    10    8   10 1
    11    9   16 1
    12   10   17 1
    13   11   12 1
    14   11   13 2
    15   14   18 2
    16   15   18 1
    17   16   18 1
    18   17   18 1
    19    1   19 1
    20    2   20 1
    21    3   21 1
    22    4   22 1
    23    7   23 1
    24    7   24 1
    25    7   25 1
    26    8   26 1
    27    8   27 1
    28    8   28 1
    29    9   29 1
    30    9   30 1
    31   10   31 1
    32   10   32 1
@<TRIPOS>MOLECULE
*****
   32    32     0     0     0
SMALL
NO_CHARGES

@<TRIPOS>ATOM
      1 C1         50.4977   -8.5936   30.1471 C.ar      1 <0>         0.0000
      2 C2         50.6175  -10.3882   28.5341 C.ar      1 <0>         0.0000
      3 C3         49.1267   -8.8096   30.2856 C.ar      1 <0>         0.0000
      4 C4         49.2464  -10.6042   28.6726 C.ar      1 <0>         0.0000
      5 C5         51.2432   -9.3829   29.2714 C.ar      1 <0>         0.0000
      6 C6         48.5011   -9.8148   29.5484 C.ar      1 <0>         0.0000
      7 C7         45.2850   -8.1842   33.8270 C.3       1 <0>         0.0000
      8 C8         45.1720  -10.1738   27.4153 C.3       1 <0>         0.0000
      9 C9         45.0985   -8.0557   32.3301 C.3       1 <0>         0.0000
     10 C10        44.1713   -9.5107   28.3375 C.3       1 <0>         0.0000
     11 N1         52.6388   -9.1632   29.1300 N.pl3     1 <0>         0.0000
     12 O1         53.1824   -8.2537   29.8022 O.3       1 <0>         0.0000
     13 O2         53.2906   -9.8843   28.3364 O.2       1 <0>         0.0000
     14 O3         46.2926   -7.5593   29.3874 O.2       1 <0>         0.0000
     15 O4         47.1558  -10.0268   29.6844 O.3       1 <0>         0.0000
     16 O5         46.0653   -8.8575   31.6740 O.3       1 <0>         0.0000
     17 O6         44.6546   -9.5780   29.6682 O.3       1 <0>         0.0000
     18 P1         46.0708   -8.8880   30.0534 P.3       1 <0>         0.0000
     19 H1         50.9731   -7.8069   30.7281 H         1 <0>         0.0000
     20 H2         51.1864  -11.0104   27.8475 H         1 <0>         0.0000
     21 H3         48.5514   -8.1917   30.9697 H         1 <0>         0.0000
     22 H4         48.7646  -11.3886   28.0953 H         1 <0>         0.0000
     23 H5         45.1547   -9.2212   34.1487 H         1 <0>         0.0000
     24 H6         46.2834   -7.8452   34.1222 H         1 <0>         0.0000
     25 H7         44.5646   -7.5556   34.3609 H         1 <0>         0.0000
     26 H8         46.1401   -9.6673   27.4610 H         1 <0>         0.0000
     27 H9         45.3099  -11.2254   27.6875 H         1 <0>         0.0000
     28 H10        44.8132  -10.1574   26.3808 H         1 <0>         0.0000
     29 H11        45.2301   -7.0163   32.0150 H         1 <0>         0.0000
     30 H12        44.1008   -8.3955   32.0369 H         1 <0>         0.0000
     31 H13        43.2054  -10.0220   28.2870 H         1 <0>         0.0000
     32 H14        44.0353   -8.4600   28.0646 H         1 <0>         0.0000
@<TRIPOS>BOND
     1    1    3 ar
     2    1    5 ar
     3    2    4 ar
     4    2    5 ar
     5    3    6 ar
     6    4    6 ar
     7    5   11 1
     8    6   15 1
     9    7    9 1
    10    8   10 1
    11    9   16 1
    12   10   17 1
    13   11   12 1
    14   11   13 2
    15   14   18 2
    16   15   18 1
    17   16   18 1
    18   17   18 1
    19    1   19 1
    20    2   20 1
    21    3   21 1
    22    4   22 1
    23    7   23 1
    24    7   24 1
    25    7   25 1
    26    8   26 1
    27    8   27 1
    28    8   28 1
    29    9   29 1
    30    9   30 1
    31   10   31 1
    32   10   32 1
@<TRIPOS>MOLECULE
*****
   32    32     0     0     0
SMALL
NO_CHARGES

@<TRIPOS>ATOM
      1 C1         50.5530   -9.8489   30.0849 C.ar      1 <0>         0.0000
      2 C2         50.2919  -11.6195   28.4619 C.ar      1 <0>         0.0000
      3 C3         49.1665   -9.7533   30.2035 C.ar      1 <0>         0.0000
      4 C4         48.9054  -11.5239   28.5807 C.ar      1 <0>         0.0000
      5 C5         51.1157  -10.7819   29.2140 C.ar      1 <0>         0.0000
      6 C6         48.3427  -10.5907   29.4515 C.ar      1 <0>         0.0000
      7 C7         45.5107   -8.2966   33.6971 C.3       1 <0>         0.0000
      8 C8         45.0490  -10.1892   27.2716 C.3       1 <0>         0.0000
      9 C9         45.3794   -8.1247   32.1987 C.3       1 <0>         0.0000
     10 C10        44.2085   -9.3222   28.1846 C.3       1 <0>         0.0000
     11 N1         52.5271  -10.8794   29.0929 N.pl3     1 <0>         0.0000
     12 O1         53.2504  -10.1168   29.7782 O.3       1 <0>         0.0000
     13 O2         53.0127  -11.7254   28.3034 O.2       1 <0>         0.0000
     14 O3         46.6969   -7.8980   29.2755 O.2       1 <0>         0.0000
     15 O4         46.9823  -10.4970   29.5680 O.3       1 <0>         0.0000
     16 O5         46.1520   -9.1201   31.5504 O.3       1 <0>         0.0000
     17 O6         44.6452   -9.5003   29.5212 O.3       1 <0>         0.0000
     18 P1         46.1741   -9.1458   29.9299 P.3       1 <0>         0.0000
     19 H1         51.1836   -9.1904   30.6772 H         1 <0>         0.0000
     20 H2         50.7173  -12.3508   27.7790 H         1 <0>         0.0000
     21 H3         48.7340   -9.0247   30.8838 H         1 <0>         0.0000
     22 H4         48.2689  -12.1788   27.9918 H         1 <0>         0.0000
     23 H5         45.1473   -9.2793   34.0103 H         1 <0>         0.0000
     24 H6         46.5552   -8.1904   34.0078 H         1 <0>         0.0000
     25 H7         44.9414   -7.5246   34.2253 H         1 <0>         0.0000
     26 H8         46.1050   -9.9121   27.3336 H         1 <0>         0.0000
     27 H9         44.9444  -11.2459   27.5389 H         1 <0>         0.0000
     28 H10        44.7180  -10.0895   26.2325 H         1 <0>         0.0000
     29 H11        45.7446   -7.1399   31.8921 H         1 <0>         0.0000
     30 H12        44.3354   -8.2319   31.8899 H         1 <0>         0.0000
     31 H13        43.1536   -9.6044   28.1179 H         1 <0>         0.0000
     32 H14        44.3148   -8.2668   27.9167 H         1 <0>         0.0000
@<TRIPOS>BOND
     1    1    3 ar
     2    1    5 ar
     3    2    4 ar
     4    2    5 ar
     5    3    6 ar
     6    4    6 ar
     7    5   11 1
     8    6   15 1
     9    7    9 1
    10    8   10 1
    11    9   16 1
    12   10   17 1
    13   11   12 1
    14   11   13 2
    15   14   18 2
    16   15   18 1
    17   16   18 1
    18   17   18 1
    19    1   19 1
    20    2   20 1
    21    3   21 1
    22    4   22 1
    23    7   23 1
    24    7   24 1
    25    7   25 1
    26    8   26 1
    27    8   27 1
    28    8   28 1
    29    9   29 1
    30    9   30 1
    31   10   31 1
    32   10   32 1
@<TRIPOS>MOLECULE
*****
   32    32     0     0     0
SMALL
NO_CHARGES

@<TRIPOS>ATOM
      1 C1         50.2154  -10.1036   30.0785 C.ar      1 <0>         0.0000
      2 C2         49.8382  -11.8339   28.4351 C.ar      1 <0>         0.0000
      3 C3         48.8379   -9.9262   30.2079 C.ar      1 <0>         0.0000
      4 C4         48.4607  -11.6566   28.5646 C.ar      1 <0>         0.0000
      5 C5         50.7155  -11.0573   29.1921 C.ar      1 <0>         0.0000
      6 C6         47.9606  -10.7026   29.4510 C.ar      1 <0>         0.0000
      7 C7         45.2981   -8.2977   33.7447 C.3       1 <0>         0.0000
      8 C8         44.6838  -10.0751   27.2991 C.3       1 <0>         0.0000
      9 C9         45.1683   -8.0986   32.2496 C.3       1 <0>         0.0000
     10 C10        43.9028   -9.1711   28.2288 C.3       1 <0>         0.0000
     11 N1         52.1177  -11.2380   29.0600 N.pl3     1 <0>         0.0000
     12 O1         52.8899  -10.5293   29.7499 O.3       1 <0>         0.0000
     13 O2         52.5465  -12.1014   28.2565 O.2       1 <0>         0.0000
     14 O3         46.4792   -7.9136   29.3205 O.2       1 <0>         0.0000
     15 O4         46.6090  -10.5287   29.5781 O.3       1 <0>         0.0000
     16 O5         45.8754   -9.1303   31.5834 O.3       1 <0>         0.0000
     17 O6         44.3361   -9.3926   29.5600 O.3       1 <0>         0.0000
     18 P1         45.8860   -9.1361   29.9626 P.3       1 <0>         0.0000
     19 H1         50.8882   -9.4920   30.6748 H         1 <0>         0.0000
     20 H2         50.2144  -12.5805   27.7401 H         1 <0>         0.0000
     21 H3         48.4543   -9.1818   30.9003 H         1 <0>         0.0000
     22 H4         47.7823  -12.2642   27.9719 H         1 <0>         0.0000
     23 H5         44.8780   -9.2607   34.0479 H         1 <0>         0.0000
     24 H6         46.3490   -8.2586   34.0495 H         1 <0>         0.0000
     25 H7         44.7796   -7.4997   34.2865 H         1 <0>         0.0000
     26 H8         45.7550   -9.8630   27.3573 H         1 <0>         0.0000
     27 H9         44.5173  -11.1270   27.5537 H         1 <0>         0.0000
     28 H10        44.3531   -9.9421   26.2637 H         1 <0>         0.0000
     29 H11        45.5903   -7.1337   31.9529 H         1 <0>         0.0000
     30 H12        44.1178   -8.1387   31.9466 H         1 <0>         0.0000
     31 H13        42.8324   -9.3884   28.1657 H         1 <0>         0.0000
     32 H14        44.0708   -8.1205   27.9735 H         1 <0>         0.0000
@<TRIPOS>BOND
     1    1    3 ar
     2    1    5 ar
     3    2    4 ar
     4    2    5 ar
     5    3    6 ar
     6    4    6 ar
     7    5   11 1
     8    6   15 1
     9    7    9 1
    10    8   10 1
    11    9   16 1
    12   10   17 1
    13   11   12 1
    14   11   13 2
    15   14   18 2
    16   15   18 1
    17   16   18 1
    18   17   18 1
    19    1   19 1
    20    2   20 1
    21    3   21 1
    22    4   22 1
    23    7   23 1
    24    7   24 1
    25    7   25 1
    26    8   26 1
    27    8   27 1
    28    8   28 1
    29    9   29 1
    30    9   30 1
    31   10   31 1
    32   10   32 1
@<TRIPOS>MOLECULE
*****
   32    32     0     0     0
SMALL
NO_CHARGES

@<TRIPOS>ATOM
      1 C1         49.9933   -9.6189   29.7243 C.ar      1 <0>         0.0000
      2 C2         50.3926   -7.4722   30.7583 C.ar      1 <0>         0.0000
      3 C3         48.6321   -9.3259   29.6416 C.ar      1 <0>         0.0000
      4 C4         49.0313   -7.1792   30.6756 C.ar      1 <0>         0.0000
      5 C5         50.8736   -8.6920   30.2827 C.ar      1 <0>         0.0000
      6 C6         48.1512   -8.1060   30.1172 C.ar      1 <0>         0.0000
      7 C7         46.9457   -9.1461   34.3952 C.3       1 <0>         0.0000
      8 C8         43.6976   -9.2652   28.4264 C.3       1 <0>         0.0000
      9 C9         46.2613   -8.4232   33.2547 C.3       1 <0>         0.0000
     10 C10        45.0894   -9.8605   28.4412 C.3       1 <0>         0.0000
     11 N1         52.2594   -8.9901   30.3672 N.pl3     1 <0>         0.0000
     12 O1         52.6717  -10.0931   29.9337 O.3       1 <0>         0.0000
     13 O2         53.0338   -8.1425   30.8736 O.2       1 <0>         0.0000
     14 O3         44.3371   -7.9488   30.9088 O.2       1 <0>         0.0000
     15 O4         46.8155   -7.8186   30.0359 O.3       1 <0>         0.0000
     16 O5         46.3102   -9.2379   32.0963 O.3       1 <0>         0.0000
     17 O6         45.5215   -9.9911   29.7848 O.3       1 <0>         0.0000
     18 P1         45.6383   -8.6793   30.7311 P.3       1 <0>         0.0000
     19 H1         50.3552  -10.5732   29.3495 H         1 <0>         0.0000
     20 H2         51.0674   -6.7408   31.1964 H         1 <0>         0.0000
     21 H3         47.9513  -10.0517   29.2052 H         1 <0>         0.0000
     22 H4         48.6625   -6.2273   31.0482 H         1 <0>         0.0000
     23 H5         46.4447  -10.0933   34.6134 H         1 <0>         0.0000
     24 H6         47.9935   -9.3486   34.1505 H         1 <0>         0.0000
     25 H7         46.9436   -8.5288   35.2997 H         1 <0>         0.0000
     26 H8         42.9921   -9.9090   28.9588 H         1 <0>         0.0000
     27 H9         43.6961   -8.2755   28.8951 H         1 <0>         0.0000
     28 H10        43.3464   -9.1306   27.3980 H         1 <0>         0.0000
     29 H11        46.7672   -7.4768   33.0416 H         1 <0>         0.0000
     30 H12        45.2143   -8.2225   33.5005 H         1 <0>         0.0000
     31 H13        45.7901   -9.2117   27.9072 H         1 <0>         0.0000
     32 H14        45.0890  -10.8495   27.9733 H         1 <0>         0.0000
@<TRIPOS>BOND
     1    1    3 ar
     2    1    5 ar
     3    2    4 ar
     4    2    5 ar
     5    3    6 ar
     6    4    6 ar
     7    5   11 1
     8    6   15 1
     9    7    9 1
    10    8   10 1
    11    9   16 1
    12   10   17 1
    13   11   12 1
    14   11   13 2
    15   14   18 2
    16   15   18 1
    17   16   18 1
    18   17   18 1
    19    1   19 1
    20    2   20 1
    21    3   21 1
    22    4   22 1
    23    7   23 1
    24    7   24 1
    25    7   25 1
    26    8   26 1
    27    8   27 1
    28    8   28 1
    29    9   29 1
    30    9   30 1
    31   10   31 1
    32   10   32 1
@<TRIPOS>MOLECULE
*****
   32    32     0     0     0
SMALL
NO_CHARGES

@<TRIPOS>ATOM
      1 C1         50.2538   -7.8291   30.3822 C.ar      1 <0>         0.0000
      2 C2         50.4366  -10.0688   29.4950 C.ar      1 <0>         0.0000
      3 C3         48.8700   -7.9782   30.4737 C.ar      1 <0>         0.0000
      4 C4         49.0527  -10.2180   29.5866 C.ar      1 <0>         0.0000
      5 C5         51.0371   -8.8743   29.8928 C.ar      1 <0>         0.0000
      6 C6         48.2695   -9.1726   30.0760 C.ar      1 <0>         0.0000
      7 C7         45.7034   -9.6414   32.6591 C.3       1 <0>         0.0000
      8 C8         45.1003  -10.2270   27.9298 C.3       1 <0>         0.0000
      9 C9         45.0162   -8.3012   32.5058 C.3       1 <0>         0.0000
     10 C10        44.0550   -9.2832   28.4849 C.3       1 <0>         0.0000
     11 N1         52.4459   -8.7227   29.7993 N.pl3     1 <0>         0.0000
     12 O1         52.9664   -7.6403   30.1623 O.3       1 <0>         0.0000
     13 O2         53.1318   -9.6754   29.3559 O.2       1 <0>         0.0000
     14 O3         46.1532   -7.0995   28.9742 O.2       1 <0>         0.0000
     15 O4         46.9116   -9.3190   30.1659 O.3       1 <0>         0.0000
     16 O5         45.7131   -7.5330   31.5401 O.3       1 <0>         0.0000
     17 O6         44.4345   -8.8918   29.7932 O.3       1 <0>         0.0000
     18 P1         45.8393   -8.1179   30.0337 P.3       1 <0>         0.0000
     19 H1         50.7093   -6.8930   30.6961 H         1 <0>         0.0000
     20 H2         51.0351  -10.8914   29.1113 H         1 <0>         0.0000
     21 H3         48.2652   -7.1605   30.8561 H         1 <0>         0.0000
     22 H4         48.5907  -11.1507   29.2748 H         1 <0>         0.0000
     23 H5         45.7055  -10.1893   31.7128 H         1 <0>         0.0000
     24 H6         46.7376   -9.5088   32.9934 H         1 <0>         0.0000
     25 H7         45.1991  -10.2489   33.4179 H         1 <0>         0.0000
     26 H8         46.0780   -9.7399   27.8785 H         1 <0>         0.0000
     27 H9         45.1834  -11.1219   28.5553 H         1 <0>         0.0000
     28 H10        44.8209  -10.5650   26.9263 H         1 <0>         0.0000
     29 H11        45.0175   -7.7584   33.4557 H         1 <0>         0.0000
     30 H12        43.9833   -8.4354   32.1710 H         1 <0>         0.0000
     31 H13        43.0797   -9.7764   28.5335 H         1 <0>         0.0000
     32 H14        43.9738   -8.3893   27.8592 H         1 <0>         0.0000
@<TRIPOS>BOND
     1    1    3 ar
     2    1    5 ar
     3    2    4 ar
     4    2    5 ar
     5    3    6 ar
     6    4    6 ar
     7    5   11 1
     8    6   15 1
     9    7    9 1
    10    8   10 1
    11    9   16 1
    12   10   17 1
    13   11   12 1
    14   11   13 2
    15   14   18 2
    16   15   18 1
    17   16   18 1
    18   17   18 1
    19    1   19 1
    20    2   20 1
    21    3   21 1
    22    4   22 1
    23    7   23 1
    24    7   24 1
    25    7   25 1
    26    8   26 1
    27    8   27 1
    28    8   28 1
    29    9   29 1
    30    9   30 1
    31   10   31 1
    32   10   32 1
