@<TRIPOS>MOLECULE
*****
   32    32     0     0     0
SMALL
NO_CHARGES

@<TRIPOS>ATOM
      1 C1          4.4166    0.3709    2.3278 C.ar      1 <0>         0.0000
      2 C2          3.3342    0.5671    4.4788 C.ar      1 <0>         0.0000
      3 C3          3.1996    0.0129    1.7480 C.ar      1 <0>         0.0000
      4 C4          2.1171    0.2092    3.8990 C.ar      1 <0>         0.0000
      5 C5          4.4840    0.6480    3.6932 C.ar      1 <0>         0.0000
      6 C6          2.0498   -0.0680    2.5336 C.ar      1 <0>         0.0000
      7 C7          0.9532    2.1233   -2.2286 C.3       1 <0>         0.0000
      8 C8         -3.2760   -0.4393    0.4984 C.3       1 <0>         0.0000
      9 C9          0.6411    0.7228   -1.7459 C.3       1 <0>         0.0000
     10 C10        -1.8528    0.0243    0.7248 C.3       1 <0>         0.0000
     11 N1          5.7228    1.0122    4.2838 N.pl3     1 <0>         0.0000
     12 O1          6.7454    1.0791    3.5597 O.3       1 <0>         0.0000
     13 O2          5.7614    1.2570    5.5140 O.2       1 <0>         0.0000
     14 O3          1.4463   -1.9247   -0.1105 O.2       1 <0>         0.0000
     15 O4          0.8556   -0.4191    1.9646 O.3       1 <0>         0.0000
     16 O5          0.8996    0.6457   -0.3547 O.3       1 <0>         0.0000
     17 O6         -0.9623   -0.9855    0.2818 O.3       1 <0>         0.0000
     18 P1          0.6399   -0.7644    0.4012 P.3       1 <0>         0.0000
     19 H1          5.3052    0.4305    1.7041 H         1 <0>         0.0000
     20 H2          3.3725    0.7799    5.5444 H         1 <0>         0.0000
     21 H3          3.1533   -0.2015    0.6837 H         1 <0>         0.0000
     22 H4          1.2249    0.1475    4.5162 H         1 <0>         0.0000
     23 H5          0.3289    2.8607   -1.7163 H         1 <0>         0.0000
     24 H6          2.0058    2.3671   -2.0514 H         1 <0>         0.0000
     25 H7          0.7845    2.2061   -3.3074 H         1 <0>         0.0000
     26 H8         -3.4612   -0.6268   -0.5629 H         1 <0>         0.0000
     27 H9         -3.4768   -1.3576    1.0600 H         1 <0>         0.0000
     28 H10        -3.9880    0.3131    0.8537 H         1 <0>         0.0000
     29 H11         1.2688   -0.0097   -2.2621 H         1 <0>         0.0000
     30 H12        -0.4111    0.4812   -1.9229 H         1 <0>         0.0000
     31 H13        -1.6742    0.2100    1.7881 H         1 <0>         0.0000
     32 H14        -1.6537    0.9414    0.1624 H         1 <0>         0.0000
@<TRIPOS>BOND
     1    1    3 ar
     2    1    5 ar
     3    2    4 ar
     4    2    5 ar
     5    3    6 ar
     6    4    6 ar
     7    5   11 1
     8    6   15 1
     9    7    9 1
    10    8   10 1
    11    9   16 1
    12   10   17 1
    13   11   12 1
    14   11   13 2
    15   14   18 2
    16   15   18 1
    17   16   18 1
    18   17   18 1
    19    1   19 1
    20    2   20 1
    21    3   21 1
    22    4   22 1
    23    7   23 1
    24    7   24 1
    25    7   25 1
    26    8   26 1
    27    8   27 1
    28    8   28 1
    29    9   29 1
    30    9   30 1
    31   10   31 1
    32   10   32 1
@<TRIPOS>MOLECULE
*****
   32    32     0     0     0
SMALL
NO_CHARGES

@<TRIPOS>ATOM
      1 C1          4.4166    0.3709    2.3278 C.ar      1 <0>         0.0000
      2 C2          3.3342    0.5671    4.4788 C.ar      1 <0>         0.0000
      3 C3          3.1996    0.0129    1.7480 C.ar      1 <0>         0.0000
      4 C4          2.1171    0.2092    3.8990 C.ar      1 <0>         0.0000
      5 C5          4.4840    0.6480    3.6932 C.ar      1 <0>         0.0000
      6 C6          2.0498   -0.0680    2.5336 C.ar      1 <0>         0.0000
      7 C7          0.5787    2.9742   -0.7699 C.3       1 <0>         0.0000
      8 C8         -3.0680   -2.0405    0.6713 C.3       1 <0>         0.0000
      9 C9          0.1738    1.7847    0.0744 C.3       1 <0>         0.0000
     10 C10        -1.5805   -2.0713    0.9510 C.3       1 <0>         0.0000
     11 N1          5.7228    1.0122    4.2838 N.pl3     1 <0>         0.0000
     12 O1          6.7454    1.0791    3.5597 O.3       1 <0>         0.0000
     13 O2          5.7614    1.2570    5.5140 O.2       1 <0>         0.0000
     14 O3          1.4463   -1.9247   -0.1105 O.2       1 <0>         0.0000
     15 O4          0.8556   -0.4191    1.9646 O.3       1 <0>         0.0000
     16 O5          0.8996    0.6457   -0.3547 O.3       1 <0>         0.0000
     17 O6         -0.9623   -0.9855    0.2818 O.3       1 <0>         0.0000
     18 P1          0.6399   -0.7644    0.4012 P.3       1 <0>         0.0000
     19 H1          5.3052    0.4305    1.7041 H         1 <0>         0.0000
     20 H2          3.3725    0.7799    5.5444 H         1 <0>         0.0000
     21 H3          3.1533   -0.2015    0.6837 H         1 <0>         0.0000
     22 H4          1.2249    0.1475    4.5162 H         1 <0>         0.0000
     23 H5          1.6473    3.1815   -0.6651 H         1 <0>         0.0000
     24 H6          0.3559    2.7916   -1.8263 H         1 <0>         0.0000
     25 H7          0.0154    3.8660   -0.4754 H         1 <0>         0.0000
     26 H8         -3.5136   -1.1092    1.0317 H         1 <0>         0.0000
     27 H9         -3.2608   -2.1323   -0.4027 H         1 <0>         0.0000
     28 H10        -3.5696   -2.8836    1.1579 H         1 <0>         0.0000
     29 H11        -0.8959    1.5828   -0.0350 H         1 <0>         0.0000
     30 H12         0.3978    1.9686    1.1294 H         1 <0>         0.0000
     31 H13        -1.1411   -3.0052    0.5880 H         1 <0>         0.0000
     32 H14        -1.3896   -1.9787    2.0243 H         1 <0>         0.0000
@<TRIPOS>BOND
     1    1    3 ar
     2    1    5 ar
     3    2    4 ar
     4    2    5 ar
     5    3    6 ar
     6    4    6 ar
     7    5   11 1
     8    6   15 1
     9    7    9 1
    10    8   10 1
    11    9   16 1
    12   10   17 1
    13   11   12 1
    14   11   13 2
    15   14   18 2
    16   15   18 1
    17   16   18 1
    18   17   18 1
    19    1   19 1
    20    2   20 1
    21    3   21 1
    22    4   22 1
    23    7   23 1
    24    7   24 1
    25    7   25 1
    26    8   26 1
    27    8   27 1
    28    8   28 1
    29    9   29 1
    30    9   30 1
    31   10   31 1
    32   10   32 1
@<TRIPOS>MOLECULE
*****
   32    32     0     0     0
SMALL
NO_CHARGES

@<TRIPOS>ATOM
      1 C1          0.4869   -3.5298    3.8684 C.ar      1 <0>         0.0000
      2 C2          1.8850   -1.9985    5.1084 C.ar      1 <0>         0.0000
      3 C3          0.3537   -2.5847    2.8513 C.ar      1 <0>         0.0000
      4 C4          1.7519   -1.0533    4.0912 C.ar      1 <0>         0.0000
      5 C5          1.2525   -3.2367    4.9970 C.ar      1 <0>         0.0000
      6 C6          0.9862   -1.3465    2.9627 C.ar      1 <0>         0.0000
      7 C7          2.2086    2.4977   -1.0990 C.3       1 <0>         0.0000
      8 C8         -3.2760   -0.4393    0.4984 C.3       1 <0>         0.0000
      9 C9          2.2078    1.1900   -0.3364 C.3       1 <0>         0.0000
     10 C10        -1.8528    0.0243    0.7248 C.3       1 <0>         0.0000
     11 N1          1.3881   -4.1986    6.0327 N.pl3     1 <0>         0.0000
     12 O1          0.8110   -5.3064    5.9132 O.3       1 <0>         0.0000
     13 O2          2.0811   -3.9144    7.0395 O.2       1 <0>         0.0000
     14 O3          1.4463   -1.9247   -0.1105 O.2       1 <0>         0.0000
     15 O4          0.8556   -0.4191    1.9646 O.3       1 <0>         0.0000
     16 O5          0.8996    0.6457   -0.3547 O.3       1 <0>         0.0000
     17 O6         -0.9623   -0.9855    0.2818 O.3       1 <0>         0.0000
     18 P1          0.6399   -0.7644    0.4012 P.3       1 <0>         0.0000
     19 H1         -0.0110   -4.4912    3.7689 H         1 <0>         0.0000
     20 H2          2.4844   -1.7567    5.9827 H         1 <0>         0.0000
     21 H3         -0.2437   -2.8189    1.9744 H         1 <0>         0.0000
     22 H4          2.2467   -0.0904    4.1839 H         1 <0>         0.0000
     23 H5          1.9097    2.3428   -2.1395 H         1 <0>         0.0000
     24 H6          1.5219    3.2145   -0.6369 H         1 <0>         0.0000
     25 H7          3.2040    2.9539   -1.0817 H         1 <0>         0.0000
     26 H8         -3.4612   -0.6268   -0.5629 H         1 <0>         0.0000
     27 H9         -3.4768   -1.3576    1.0600 H         1 <0>         0.0000
     28 H10        -3.9880    0.3131    0.8537 H         1 <0>         0.0000
     29 H11         2.5076    1.3519    0.7033 H         1 <0>         0.0000
     30 H12         2.8938    0.4747   -0.7999 H         1 <0>         0.0000
     31 H13        -1.6742    0.2100    1.7881 H         1 <0>         0.0000
     32 H14        -1.6537    0.9414    0.1624 H         1 <0>         0.0000
@<TRIPOS>BOND
     1    1    3 ar
     2    1    5 ar
     3    2    4 ar
     4    2    5 ar
     5    3    6 ar
     6    4    6 ar
     7    5   11 1
     8    6   15 1
     9    7    9 1
    10    8   10 1
    11    9   16 1
    12   10   17 1
    13   11   12 1
    14   11   13 2
    15   14   18 2
    16   15   18 1
    17   16   18 1
    18   17   18 1
    19    1   19 1
    20    2   20 1
    21    3   21 1
    22    4   22 1
    23    7   23 1
    24    7   24 1
    25    7   25 1
    26    8   26 1
    27    8   27 1
    28    8   28 1
    29    9   29 1
    30    9   30 1
    31   10   31 1
    32   10   32 1
@<TRIPOS>MOLECULE
*****
   32    32     0     0     0
SMALL
NO_CHARGES

@<TRIPOS>ATOM
      1 C1          4.4166    0.3709    2.3278 C.ar      1 <0>         0.0000
      2 C2          3.3342    0.5671    4.4788 C.ar      1 <0>         0.0000
      3 C3          3.1996    0.0129    1.7480 C.ar      1 <0>         0.0000
      4 C4          2.1171    0.2092    3.8990 C.ar      1 <0>         0.0000
      5 C5          4.4840    0.6480    3.6932 C.ar      1 <0>         0.0000
      6 C6          2.0498   -0.0680    2.5336 C.ar      1 <0>         0.0000
      7 C7          0.5787    2.9742   -0.7699 C.3       1 <0>         0.0000
      8 C8         -3.0494   -1.3745   -0.8096 C.3       1 <0>         0.0000
      9 C9          0.1738    1.7847    0.0744 C.3       1 <0>         0.0000
     10 C10        -1.5563   -1.1996   -0.9873 C.3       1 <0>         0.0000
     11 N1          5.7228    1.0122    4.2838 N.pl3     1 <0>         0.0000
     12 O1          6.7454    1.0791    3.5597 O.3       1 <0>         0.0000
     13 O2          5.7614    1.2570    5.5140 O.2       1 <0>         0.0000
     14 O3          1.4463   -1.9247   -0.1105 O.2       1 <0>         0.0000
     15 O4          0.8556   -0.4191    1.9646 O.3       1 <0>         0.0000
     16 O5          0.8996    0.6457   -0.3547 O.3       1 <0>         0.0000
     17 O6         -0.9623   -0.9855    0.2818 O.3       1 <0>         0.0000
     18 P1          0.6399   -0.7644    0.4012 P.3       1 <0>         0.0000
     19 H1          5.3052    0.4305    1.7041 H         1 <0>         0.0000
     20 H2          3.3725    0.7799    5.5444 H         1 <0>         0.0000
     21 H3          3.1533   -0.2015    0.6837 H         1 <0>         0.0000
     22 H4          1.2249    0.1475    4.5162 H         1 <0>         0.0000
     23 H5          1.6473    3.1815   -0.6651 H         1 <0>         0.0000
     24 H6          0.3559    2.7916   -1.8263 H         1 <0>         0.0000
     25 H7          0.0154    3.8660   -0.4754 H         1 <0>         0.0000
     26 H8         -3.2684   -2.2356   -0.1721 H         1 <0>         0.0000
     27 H9         -3.4920   -0.4798   -0.3596 H         1 <0>         0.0000
     28 H10        -3.5390   -1.5187   -1.7785 H         1 <0>         0.0000
     29 H11        -0.8959    1.5828   -0.0350 H         1 <0>         0.0000
     30 H12         0.3978    1.9686    1.1294 H         1 <0>         0.0000
     31 H13        -1.3442   -0.3369   -1.6258 H         1 <0>         0.0000
     32 H14        -1.1155   -2.0947   -1.4362 H         1 <0>         0.0000
@<TRIPOS>BOND
     1    1    3 ar
     2    1    5 ar
     3    2    4 ar
     4    2    5 ar
     5    3    6 ar
     6    4    6 ar
     7    5   11 1
     8    6   15 1
     9    7    9 1
    10    8   10 1
    11    9   16 1
    12   10   17 1
    13   11   12 1
    14   11   13 2
    15   14   18 2
    16   15   18 1
    17   16   18 1
    18   17   18 1
    19    1   19 1
    20    2   20 1
    21    3   21 1
    22    4   22 1
    23    7   23 1
    24    7   24 1
    25    7   25 1
    26    8   26 1
    27    8   27 1
    28    8   28 1
    29    9   29 1
    30    9   30 1
    31   10   31 1
    32   10   32 1
@<TRIPOS>MOLECULE
*****
   32    32     0     0     0
SMALL
NO_CHARGES

@<TRIPOS>ATOM
      1 C1         -0.1305   -3.4373    3.7963 C.ar      1 <0>         0.0000
      2 C2          0.5734   -1.7451    5.3704 C.ar      1 <0>         0.0000
      3 C3          0.1250   -2.5619    2.7409 C.ar      1 <0>         0.0000
      4 C4          0.8290   -0.8696    4.3150 C.ar      1 <0>         0.0000
      5 C5          0.0936   -3.0289    5.1111 C.ar      1 <0>         0.0000
      6 C6          0.6048   -1.2781    3.0002 C.ar      1 <0>         0.0000
      7 C7          0.5787    2.9742   -0.7699 C.3       1 <0>         0.0000
      8 C8         -3.0494   -1.3745   -0.8096 C.3       1 <0>         0.0000
      9 C9          0.1738    1.7847    0.0744 C.3       1 <0>         0.0000
     10 C10        -1.5563   -1.1996   -0.9873 C.3       1 <0>         0.0000
     11 N1         -0.1666   -3.9198    6.1857 N.pl3     1 <0>         0.0000
     12 O1         -0.5980   -5.0703    5.9310 O.3       1 <0>         0.0000
     13 O2          0.0415   -3.5321    7.3609 O.2       1 <0>         0.0000
     14 O3          1.4463   -1.9247   -0.1105 O.2       1 <0>         0.0000
     15 O4          0.8556   -0.4191    1.9646 O.3       1 <0>         0.0000
     16 O5          0.8996    0.6457   -0.3547 O.3       1 <0>         0.0000
     17 O6         -0.9623   -0.9855    0.2818 O.3       1 <0>         0.0000
     18 P1          0.6399   -0.7644    0.4012 P.3       1 <0>         0.0000
     19 H1         -0.5039   -4.4353    3.5803 H         1 <0>         0.0000
     20 H2          0.7521   -1.4136    6.3904 H         1 <0>         0.0000
     21 H3         -0.0512   -2.8858    1.7187 H         1 <0>         0.0000
     22 H4          1.2023    0.1293    4.5234 H         1 <0>         0.0000
     23 H5          1.6473    3.1815   -0.6651 H         1 <0>         0.0000
     24 H6          0.3559    2.7916   -1.8263 H         1 <0>         0.0000
     25 H7          0.0154    3.8660   -0.4754 H         1 <0>         0.0000
     26 H8         -3.2684   -2.2356   -0.1721 H         1 <0>         0.0000
     27 H9         -3.4920   -0.4798   -0.3596 H         1 <0>         0.0000
     28 H10        -3.5390   -1.5187   -1.7785 H         1 <0>         0.0000
     29 H11        -0.8959    1.5828   -0.0350 H         1 <0>         0.0000
     30 H12         0.3978    1.9686    1.1294 H         1 <0>         0.0000
     31 H13        -1.3442   -0.3369   -1.6258 H         1 <0>         0.0000
     32 H14        -1.1155   -2.0947   -1.4362 H         1 <0>         0.0000
@<TRIPOS>BOND
     1    1    3 ar
     2    1    5 ar
     3    2    4 ar
     4    2    5 ar
     5    3    6 ar
     6    4    6 ar
     7    5   11 1
     8    6   15 1
     9    7    9 1
    10    8   10 1
    11    9   16 1
    12   10   17 1
    13   11   12 1
    14   11   13 2
    15   14   18 2
    16   15   18 1
    17   16   18 1
    18   17   18 1
    19    1   19 1
    20    2   20 1
    21    3   21 1
    22    4   22 1
    23    7   23 1
    24    7   24 1
    25    7   25 1
    26    8   26 1
    27    8   27 1
    28    8   28 1
    29    9   29 1
    30    9   30 1
    31   10   31 1
    32   10   32 1
@<TRIPOS>MOLECULE
*****
   32    32     0     0     0
SMALL
NO_CHARGES

@<TRIPOS>ATOM
      1 C1         -0.1305   -3.4373    3.7963 C.ar      1 <0>         0.0000
      2 C2          0.5734   -1.7451    5.3704 C.ar      1 <0>         0.0000
      3 C3          0.1250   -2.5619    2.7409 C.ar      1 <0>         0.0000
      4 C4          0.8290   -0.8696    4.3150 C.ar      1 <0>         0.0000
      5 C5          0.0936   -3.0289    5.1111 C.ar      1 <0>         0.0000
      6 C6          0.6048   -1.2781    3.0002 C.ar      1 <0>         0.0000
      7 C7          0.9532    2.1233   -2.2286 C.3       1 <0>         0.0000
      8 C8         -3.2760   -0.4393    0.4984 C.3       1 <0>         0.0000
      9 C9          0.6411    0.7228   -1.7459 C.3       1 <0>         0.0000
     10 C10        -1.8528    0.0243    0.7248 C.3       1 <0>         0.0000
     11 N1         -0.1666   -3.9198    6.1857 N.pl3     1 <0>         0.0000
     12 O1         -0.5980   -5.0703    5.9310 O.3       1 <0>         0.0000
     13 O2          0.0415   -3.5321    7.3609 O.2       1 <0>         0.0000
     14 O3          1.4463   -1.9247   -0.1105 O.2       1 <0>         0.0000
     15 O4          0.8556   -0.4191    1.9646 O.3       1 <0>         0.0000
     16 O5          0.8996    0.6457   -0.3547 O.3       1 <0>         0.0000
     17 O6         -0.9623   -0.9855    0.2818 O.3       1 <0>         0.0000
     18 P1          0.6399   -0.7644    0.4012 P.3       1 <0>         0.0000
     19 H1         -0.5039   -4.4353    3.5803 H         1 <0>         0.0000
     20 H2          0.7521   -1.4136    6.3904 H         1 <0>         0.0000
     21 H3         -0.0512   -2.8858    1.7187 H         1 <0>         0.0000
     22 H4          1.2023    0.1293    4.5234 H         1 <0>         0.0000
     23 H5          0.3289    2.8607   -1.7163 H         1 <0>         0.0000
     24 H6          2.0058    2.3671   -2.0514 H         1 <0>         0.0000
     25 H7          0.7845    2.2061   -3.3074 H         1 <0>         0.0000
     26 H8         -3.4612   -0.6268   -0.5629 H         1 <0>         0.0000
     27 H9         -3.4768   -1.3576    1.0600 H         1 <0>         0.0000
     28 H10        -3.9880    0.3131    0.8537 H         1 <0>         0.0000
     29 H11         1.2688   -0.0097   -2.2621 H         1 <0>         0.0000
     30 H12        -0.4111    0.4812   -1.9229 H         1 <0>         0.0000
     31 H13        -1.6742    0.2100    1.7881 H         1 <0>         0.0000
     32 H14        -1.6537    0.9414    0.1624 H         1 <0>         0.0000
@<TRIPOS>BOND
     1    1    3 ar
     2    1    5 ar
     3    2    4 ar
     4    2    5 ar
     5    3    6 ar
     6    4    6 ar
     7    5   11 1
     8    6   15 1
     9    7    9 1
    10    8   10 1
    11    9   16 1
    12   10   17 1
    13   11   12 1
    14   11   13 2
    15   14   18 2
    16   15   18 1
    17   16   18 1
    18   17   18 1
    19    1   19 1
    20    2   20 1
    21    3   21 1
    22    4   22 1
    23    7   23 1
    24    7   24 1
    25    7   25 1
    26    8   26 1
    27    8   27 1
    28    8   28 1
    29    9   29 1
    30    9   30 1
    31   10   31 1
    32   10   32 1
@<TRIPOS>MOLECULE
*****
   32    32     0     0     0
SMALL
NO_CHARGES

@<TRIPOS>ATOM
      1 C1          4.4618   -0.2009    2.5849 C.ar      1 <0>         0.0000
      2 C2          3.3343   -0.7846    4.6404 C.ar      1 <0>         0.0000
      3 C3          3.2356   -0.1713    1.9207 C.ar      1 <0>         0.0000
      4 C4          2.1081   -0.7549    3.9762 C.ar      1 <0>         0.0000
      5 C5          4.5112   -0.5076    3.9447 C.ar      1 <0>         0.0000
      6 C6          2.0588   -0.4483    2.6163 C.ar      1 <0>         0.0000
      7 C7          0.9532    2.1233   -2.2286 C.3       1 <0>         0.0000
      8 C8         -3.0680   -2.0405    0.6713 C.3       1 <0>         0.0000
      9 C9          0.6411    0.7228   -1.7459 C.3       1 <0>         0.0000
     10 C10        -1.5805   -2.0713    0.9510 C.3       1 <0>         0.0000
     11 N1          5.7593   -0.5380    4.6211 N.pl3     1 <0>         0.0000
     12 O1          6.8063   -0.2859    3.9771 O.3       1 <0>         0.0000
     13 O2          5.7813   -0.8165    5.8445 O.2       1 <0>         0.0000
     14 O3          1.4463   -1.9247   -0.1105 O.2       1 <0>         0.0000
     15 O4          0.8556   -0.4191    1.9646 O.3       1 <0>         0.0000
     16 O5          0.8996    0.6457   -0.3547 O.3       1 <0>         0.0000
     17 O6         -0.9623   -0.9855    0.2818 O.3       1 <0>         0.0000
     18 P1          0.6399   -0.7644    0.4012 P.3       1 <0>         0.0000
     19 H1          5.3716    0.0174    2.0309 H         1 <0>         0.0000
     20 H2          3.3584   -1.0256    5.7003 H         1 <0>         0.0000
     21 H3          3.2035    0.0686    0.8614 H         1 <0>         0.0000
     22 H4          1.1948   -0.9720    4.5234 H         1 <0>         0.0000
     23 H5          0.3289    2.8607   -1.7163 H         1 <0>         0.0000
     24 H6          2.0058    2.3671   -2.0514 H         1 <0>         0.0000
     25 H7          0.7845    2.2061   -3.3074 H         1 <0>         0.0000
     26 H8         -3.5136   -1.1092    1.0317 H         1 <0>         0.0000
     27 H9         -3.2608   -2.1323   -0.4027 H         1 <0>         0.0000
     28 H10        -3.5696   -2.8836    1.1579 H         1 <0>         0.0000
     29 H11         1.2688   -0.0097   -2.2621 H         1 <0>         0.0000
     30 H12        -0.4111    0.4812   -1.9229 H         1 <0>         0.0000
     31 H13        -1.1411   -3.0052    0.5880 H         1 <0>         0.0000
     32 H14        -1.3896   -1.9787    2.0243 H         1 <0>         0.0000
@<TRIPOS>BOND
     1    1    3 ar
     2    1    5 ar
     3    2    4 ar
     4    2    5 ar
     5    3    6 ar
     6    4    6 ar
     7    5   11 1
     8    6   15 1
     9    7    9 1
    10    8   10 1
    11    9   16 1
    12   10   17 1
    13   11   12 1
    14   11   13 2
    15   14   18 2
    16   15   18 1
    17   16   18 1
    18   17   18 1
    19    1   19 1
    20    2   20 1
    21    3   21 1
    22    4   22 1
    23    7   23 1
    24    7   24 1
    25    7   25 1
    26    8   26 1
    27    8   27 1
    28    8   28 1
    29    9   29 1
    30    9   30 1
    31   10   31 1
    32   10   32 1
@<TRIPOS>MOLECULE
*****
   32    32     0     0     0
SMALL
NO_CHARGES

@<TRIPOS>ATOM
      1 C1          0.4838   -3.5292    3.8688 C.ar      1 <0>         0.0000
      2 C2         -0.0408   -1.6531    5.2979 C.ar      1 <0>         0.0000
      3 C3          0.7393   -2.6538    2.8134 C.ar      1 <0>         0.0000
      4 C4          0.2148   -0.7777    4.2425 C.ar      1 <0>         0.0000
      5 C5          0.0937   -3.0289    5.1111 C.ar      1 <0>         0.0000
      6 C6          0.6048   -1.2781    3.0002 C.ar      1 <0>         0.0000
      7 C7          2.2086    2.4977   -1.0990 C.3       1 <0>         0.0000
      8 C8         -3.2760   -0.4393    0.4984 C.3       1 <0>         0.0000
      9 C9          2.2078    1.1900   -0.3364 C.3       1 <0>         0.0000
     10 C10        -1.8528    0.0243    0.7248 C.3       1 <0>         0.0000
     11 N1         -0.1667   -3.9198    6.1857 N.pl3     1 <0>         0.0000
     12 O1         -0.0400   -5.1538    5.9969 O.3       1 <0>         0.0000
     13 O2         -0.5168   -3.4487    7.2948 O.2       1 <0>         0.0000
     14 O3          1.4463   -1.9247   -0.1105 O.2       1 <0>         0.0000
     15 O4          0.8556   -0.4191    1.9646 O.3       1 <0>         0.0000
     16 O5          0.8996    0.6457   -0.3547 O.3       1 <0>         0.0000
     17 O6         -0.9623   -0.9855    0.2818 O.3       1 <0>         0.0000
     18 P1          0.6399   -0.7644    0.4012 P.3       1 <0>         0.0000
     19 H1          0.5927   -4.5992    3.7099 H         1 <0>         0.0000
     20 H2         -0.3446   -1.2496    6.2607 H         1 <0>         0.0000
     21 H3          1.0431   -3.0495    1.8481 H         1 <0>         0.0000
     22 H4          0.1079    0.2930    4.3940 H         1 <0>         0.0000
     23 H5          1.9097    2.3428   -2.1395 H         1 <0>         0.0000
     24 H6          1.5219    3.2145   -0.6369 H         1 <0>         0.0000
     25 H7          3.2040    2.9539   -1.0817 H         1 <0>         0.0000
     26 H8         -3.4612   -0.6268   -0.5629 H         1 <0>         0.0000
     27 H9         -3.4768   -1.3576    1.0600 H         1 <0>         0.0000
     28 H10        -3.9880    0.3131    0.8537 H         1 <0>         0.0000
     29 H11         2.5076    1.3519    0.7033 H         1 <0>         0.0000
     30 H12         2.8938    0.4747   -0.7999 H         1 <0>         0.0000
     31 H13        -1.6742    0.2100    1.7881 H         1 <0>         0.0000
     32 H14        -1.6537    0.9414    0.1624 H         1 <0>         0.0000
@<TRIPOS>BOND
     1    1    3 ar
     2    1    5 ar
     3    2    4 ar
     4    2    5 ar
     5    3    6 ar
     6    4    6 ar
     7    5   11 1
     8    6   15 1
     9    7    9 1
    10    8   10 1
    11    9   16 1
    12   10   17 1
    13   11   12 1
    14   11   13 2
    15   14   18 2
    16   15   18 1
    17   16   18 1
    18   17   18 1
    19    1   19 1
    20    2   20 1
    21    3   21 1
    22    4   22 1
    23    7   23 1
    24    7   24 1
    25    7   25 1
    26    8   26 1
    27    8   27 1
    28    8   28 1
    29    9   29 1
    30    9   30 1
    31   10   31 1
    32   10   32 1
@<TRIPOS>MOLECULE
*****
   32    32     0     0     0
SMALL
NO_CHARGES

@<TRIPOS>ATOM
      1 C1         -0.6533   -3.1170    3.9347 C.ar      1 <0>         0.0000
      2 C2         -0.6159   -1.0931    5.2536 C.ar      1 <0>         0.0000
      3 C3         -0.0527   -2.4375    2.8749 C.ar      1 <0>         0.0000
      4 C4         -0.0153   -0.4136    4.1938 C.ar      1 <0>         0.0000
      5 C5         -0.9349   -2.4448    5.1241 C.ar      1 <0>         0.0000
      6 C6          0.2663   -1.0858    3.0045 C.ar      1 <0>         0.0000
      7 C7          2.2086    2.4977   -1.0990 C.3       1 <0>         0.0000
      8 C8         -3.0494   -1.3745   -0.8096 C.3       1 <0>         0.0000
      9 C9          2.2078    1.1900   -0.3364 C.3       1 <0>         0.0000
     10 C10        -1.5563   -1.1996   -0.9873 C.3       1 <0>         0.0000
     11 N1         -1.5465   -3.1363    6.2030 N.pl3     1 <0>         0.0000
     12 O1         -1.8255   -4.3520    6.0661 O.3       1 <0>         0.0000
     13 O2         -1.7916   -2.5126    7.2640 O.2       1 <0>         0.0000
     14 O3          1.4463   -1.9247   -0.1105 O.2       1 <0>         0.0000
     15 O4          0.8556   -0.4191    1.9646 O.3       1 <0>         0.0000
     16 O5          0.8996    0.6457   -0.3547 O.3       1 <0>         0.0000
     17 O6         -0.9623   -0.9855    0.2818 O.3       1 <0>         0.0000
     18 P1          0.6399   -0.7644    0.4012 P.3       1 <0>         0.0000
     19 H1         -0.8964   -4.1706    3.8207 H         1 <0>         0.0000
     20 H2         -0.8303   -0.5569    6.1748 H         1 <0>         0.0000
     21 H3          0.1645   -2.9666    1.9510 H         1 <0>         0.0000
     22 H4          0.2305    0.6394    4.3006 H         1 <0>         0.0000
     23 H5          1.9097    2.3428   -2.1395 H         1 <0>         0.0000
     24 H6          1.5219    3.2145   -0.6369 H         1 <0>         0.0000
     25 H7          3.2040    2.9539   -1.0817 H         1 <0>         0.0000
     26 H8         -3.2684   -2.2356   -0.1721 H         1 <0>         0.0000
     27 H9         -3.4920   -0.4798   -0.3596 H         1 <0>         0.0000
     28 H10        -3.5390   -1.5187   -1.7785 H         1 <0>         0.0000
     29 H11         2.5076    1.3519    0.7033 H         1 <0>         0.0000
     30 H12         2.8938    0.4747   -0.7999 H         1 <0>         0.0000
     31 H13        -1.3442   -0.3369   -1.6258 H         1 <0>         0.0000
     32 H14        -1.1155   -2.0947   -1.4362 H         1 <0>         0.0000
@<TRIPOS>BOND
     1    1    3 ar
     2    1    5 ar
     3    2    4 ar
     4    2    5 ar
     5    3    6 ar
     6    4    6 ar
     7    5   11 1
     8    6   15 1
     9    7    9 1
    10    8   10 1
    11    9   16 1
    12   10   17 1
    13   11   12 1
    14   11   13 2
    15   14   18 2
    16   15   18 1
    17   16   18 1
    18   17   18 1
    19    1   19 1
    20    2   20 1
    21    3   21 1
    22    4   22 1
    23    7   23 1
    24    7   24 1
    25    7   25 1
    26    8   26 1
    27    8   27 1
    28    8   28 1
    29    9   29 1
    30    9   30 1
    31   10   31 1
    32   10   32 1
@<TRIPOS>MOLECULE
*****
   32    32     0     0     0
SMALL
NO_CHARGES

@<TRIPOS>ATOM
      1 C1          4.3497   -0.5877    3.0599 C.ar      1 <0>         0.0000
      2 C2          3.4012    1.5255    3.7466 C.ar      1 <0>         0.0000
      3 C3          3.1326   -0.9456    2.4801 C.ar      1 <0>         0.0000
      4 C4          2.1841    1.1676    3.1668 C.ar      1 <0>         0.0000
      5 C5          4.4840    0.6478    3.6932 C.ar      1 <0>         0.0000
      6 C6          2.0498   -0.0680    2.5336 C.ar      1 <0>         0.0000
      7 C7          0.9532    2.1233   -2.2286 C.3       1 <0>         0.0000
      8 C8         -3.2760   -0.4393    0.4984 C.3       1 <0>         0.0000
      9 C9          0.6411    0.7228   -1.7459 C.3       1 <0>         0.0000
     10 C10        -1.8528    0.0243    0.7248 C.3       1 <0>         0.0000
     11 N1          5.7228    1.0124    4.2837 N.pl3     1 <0>         0.0000
     12 O1          6.6845    0.2085    4.2248 O.3       1 <0>         0.0000
     13 O2          5.8220    2.1284    4.8488 O.2       1 <0>         0.0000
     14 O3          1.4463   -1.9247   -0.1105 O.2       1 <0>         0.0000
     15 O4          0.8556   -0.4191    1.9646 O.3       1 <0>         0.0000
     16 O5          0.8996    0.6457   -0.3547 O.3       1 <0>         0.0000
     17 O6         -0.9623   -0.9855    0.2818 O.3       1 <0>         0.0000
     18 P1          0.6399   -0.7644    0.4012 P.3       1 <0>         0.0000
     19 H1          5.1859   -1.2810    3.0109 H         1 <0>         0.0000
     20 H2          3.4919    2.4914    4.2375 H         1 <0>         0.0000
     21 H3          3.0342   -1.9094    1.9879 H         1 <0>         0.0000
     22 H4          1.3441    1.8554    3.2120 H         1 <0>         0.0000
     23 H5          0.3289    2.8607   -1.7163 H         1 <0>         0.0000
     24 H6          2.0058    2.3671   -2.0514 H         1 <0>         0.0000
     25 H7          0.7845    2.2061   -3.3074 H         1 <0>         0.0000
     26 H8         -3.4612   -0.6268   -0.5629 H         1 <0>         0.0000
     27 H9         -3.4768   -1.3576    1.0600 H         1 <0>         0.0000
     28 H10        -3.9880    0.3131    0.8537 H         1 <0>         0.0000
     29 H11         1.2688   -0.0097   -2.2621 H         1 <0>         0.0000
     30 H12        -0.4111    0.4812   -1.9229 H         1 <0>         0.0000
     31 H13        -1.6742    0.2100    1.7881 H         1 <0>         0.0000
     32 H14        -1.6537    0.9414    0.1624 H         1 <0>         0.0000
@<TRIPOS>BOND
     1    1    3 ar
     2    1    5 ar
     3    2    4 ar
     4    2    5 ar
     5    3    6 ar
     6    4    6 ar
     7    5   11 1
     8    6   15 1
     9    7    9 1
    10    8   10 1
    11    9   16 1
    12   10   17 1
    13   11   12 1
    14   11   13 2
    15   14   18 2
    16   15   18 1
    17   16   18 1
    18   17   18 1
    19    1   19 1
    20    2   20 1
    21    3   21 1
    22    4   22 1
    23    7   23 1
    24    7   24 1
    25    7   25 1
    26    8   26 1
    27    8   27 1
    28    8   28 1
    29    9   29 1
    30    9   30 1
    31   10   31 1
    32   10   32 1
@<TRIPOS>MOLECULE
*****
   32    32     0     0     0
SMALL
NO_CHARGES

@<TRIPOS>ATOM
      1 C1          1.0277   -3.3697    4.1328 C.ar      1 <0>         0.0000
      2 C2         -0.5847   -1.8125    5.0340 C.ar      1 <0>         0.0000
      3 C3          1.2833   -2.4944    3.0774 C.ar      1 <0>         0.0000
      4 C4         -0.3292   -0.9371    3.9785 C.ar      1 <0>         0.0000
      5 C5          0.0937   -3.0288    5.1112 C.ar      1 <0>         0.0000
      6 C6          0.6048   -1.2781    3.0002 C.ar      1 <0>         0.0000
      7 C7          0.5787    2.9742   -0.7699 C.3       1 <0>         0.0000
      8 C8         -3.0494   -1.3745   -0.8096 C.3       1 <0>         0.0000
      9 C9          0.1738    1.7847    0.0744 C.3       1 <0>         0.0000
     10 C10        -1.5563   -1.1996   -0.9873 C.3       1 <0>         0.0000
     11 N1         -0.1668   -3.9198    6.1856 N.pl3     1 <0>         0.0000
     12 O1          0.4541   -5.0090    6.2366 O.3       1 <0>         0.0000
     13 O2         -1.0112   -3.5938    7.0548 O.2       1 <0>         0.0000
     14 O3          1.4463   -1.9247   -0.1105 O.2       1 <0>         0.0000
     15 O4          0.8556   -0.4191    1.9646 O.3       1 <0>         0.0000
     16 O5          0.8996    0.6457   -0.3547 O.3       1 <0>         0.0000
     17 O6         -0.9623   -0.9855    0.2818 O.3       1 <0>         0.0000
     18 P1          0.6399   -0.7644    0.4012 P.3       1 <0>         0.0000
     19 H1          1.5637   -4.3144    4.1813 H         1 <0>         0.0000
     20 H2         -1.3156   -1.5344    5.7894 H         1 <0>         0.0000
     21 H3          2.0122   -2.7653    2.3185 H         1 <0>         0.0000
     22 H4         -0.8612    0.0088    3.9236 H         1 <0>         0.0000
     23 H5          1.6473    3.1815   -0.6651 H         1 <0>         0.0000
     24 H6          0.3559    2.7916   -1.8263 H         1 <0>         0.0000
     25 H7          0.0154    3.8660   -0.4754 H         1 <0>         0.0000
     26 H8         -3.2684   -2.2356   -0.1721 H         1 <0>         0.0000
     27 H9         -3.4920   -0.4798   -0.3596 H         1 <0>         0.0000
     28 H10        -3.5390   -1.5187   -1.7785 H         1 <0>         0.0000
     29 H11        -0.8959    1.5828   -0.0350 H         1 <0>         0.0000
     30 H12         0.3978    1.9686    1.1294 H         1 <0>         0.0000
     31 H13        -1.3442   -0.3369   -1.6258 H         1 <0>         0.0000
     32 H14        -1.1155   -2.0947   -1.4362 H         1 <0>         0.0000
@<TRIPOS>BOND
     1    1    3 ar
     2    1    5 ar
     3    2    4 ar
     4    2    5 ar
     5    3    6 ar
     6    4    6 ar
     7    5   11 1
     8    6   15 1
     9    7    9 1
    10    8   10 1
    11    9   16 1
    12   10   17 1
    13   11   12 1
    14   11   13 2
    15   14   18 2
    16   15   18 1
    17   16   18 1
    18   17   18 1
    19    1   19 1
    20    2   20 1
    21    3   21 1
    22    4   22 1
    23    7   23 1
    24    7   24 1
    25    7   25 1
    26    8   26 1
    27    8   27 1
    28    8   28 1
    29    9   29 1
    30    9   30 1
    31   10   31 1
    32   10   32 1
@<TRIPOS>MOLECULE
*****
   32    32     0     0     0
SMALL
NO_CHARGES

@<TRIPOS>ATOM
      1 C1          4.3277    0.3460    2.8569 C.ar      1 <0>         0.0000
      2 C2          3.4684   -1.3314    4.3685 C.ar      1 <0>         0.0000
      3 C3          3.1015    0.3756    2.1927 C.ar      1 <0>         0.0000
      4 C4          2.2422   -1.3018    3.7042 C.ar      1 <0>         0.0000
      5 C5          4.5111   -0.5076    3.9448 C.ar      1 <0>         0.0000
      6 C6          2.0588   -0.4483    2.6163 C.ar      1 <0>         0.0000
      7 C7          0.9532    2.1233   -2.2286 C.3       1 <0>         0.0000
      8 C8         -3.2760   -0.4393    0.4984 C.3       1 <0>         0.0000
      9 C9          0.6411    0.7228   -1.7459 C.3       1 <0>         0.0000
     10 C10        -1.8528    0.0243    0.7248 C.3       1 <0>         0.0000
     11 N1          5.7593   -0.5381    4.6211 N.pl3     1 <0>         0.0000
     12 O1          6.6846    0.2109    4.2241 O.3       1 <0>         0.0000
     13 O2          5.9033   -1.3135    5.5971 O.2       1 <0>         0.0000
     14 O3          1.4463   -1.9247   -0.1105 O.2       1 <0>         0.0000
     15 O4          0.8556   -0.4191    1.9646 O.3       1 <0>         0.0000
     16 O5          0.8996    0.6457   -0.3547 O.3       1 <0>         0.0000
     17 O6         -0.9623   -0.9855    0.2818 O.3       1 <0>         0.0000
     18 P1          0.6399   -0.7644    0.4012 P.3       1 <0>         0.0000
     19 H1          5.1321    0.9936    2.5167 H         1 <0>         0.0000
     20 H2          3.5978   -2.0019    5.2146 H         1 <0>         0.0000
     21 H3          2.9645    1.0428    1.3460 H         1 <0>         0.0000
     22 H4          1.4338   -1.9463    4.0387 H         1 <0>         0.0000
     23 H5          0.3289    2.8607   -1.7163 H         1 <0>         0.0000
     24 H6          2.0058    2.3671   -2.0514 H         1 <0>         0.0000
     25 H7          0.7845    2.2061   -3.3074 H         1 <0>         0.0000
     26 H8         -3.4612   -0.6268   -0.5629 H         1 <0>         0.0000
     27 H9         -3.4768   -1.3576    1.0600 H         1 <0>         0.0000
     28 H10        -3.9880    0.3131    0.8537 H         1 <0>         0.0000
     29 H11         1.2688   -0.0097   -2.2621 H         1 <0>         0.0000
     30 H12        -0.4111    0.4812   -1.9229 H         1 <0>         0.0000
     31 H13        -1.6742    0.2100    1.7881 H         1 <0>         0.0000
     32 H14        -1.6537    0.9414    0.1624 H         1 <0>         0.0000
@<TRIPOS>BOND
     1    1    3 ar
     2    1    5 ar
     3    2    4 ar
     4    2    5 ar
     5    3    6 ar
     6    4    6 ar
     7    5   11 1
     8    6   15 1
     9    7    9 1
    10    8   10 1
    11    9   16 1
    12   10   17 1
    13   11   12 1
    14   11   13 2
    15   14   18 2
    16   15   18 1
    17   16   18 1
    18   17   18 1
    19    1   19 1
    20    2   20 1
    21    3   21 1
    22    4   22 1
    23    7   23 1
    24    7   24 1
    25    7   25 1
    26    8   26 1
    27    8   27 1
    28    8   28 1
    29    9   29 1
    30    9   30 1
    31   10   31 1
    32   10   32 1
@<TRIPOS>MOLECULE
*****
   32    32     0     0     0
SMALL
NO_CHARGES

@<TRIPOS>ATOM
      1 C1          4.3277    0.3460    2.8569 C.ar      1 <0>         0.0000
      2 C2          3.4684   -1.3314    4.3685 C.ar      1 <0>         0.0000
      3 C3          3.1015    0.3756    2.1927 C.ar      1 <0>         0.0000
      4 C4          2.2422   -1.3018    3.7042 C.ar      1 <0>         0.0000
      5 C5          4.5111   -0.5076    3.9448 C.ar      1 <0>         0.0000
      6 C6          2.0588   -0.4483    2.6163 C.ar      1 <0>         0.0000
      7 C7          0.5787    2.9742   -0.7699 C.3       1 <0>         0.0000
      8 C8         -3.0494   -1.3745   -0.8096 C.3       1 <0>         0.0000
      9 C9          0.1738    1.7847    0.0744 C.3       1 <0>         0.0000
     10 C10        -1.5563   -1.1996   -0.9873 C.3       1 <0>         0.0000
     11 N1          5.7593   -0.5381    4.6211 N.pl3     1 <0>         0.0000
     12 O1          6.6846    0.2109    4.2241 O.3       1 <0>         0.0000
     13 O2          5.9033   -1.3135    5.5971 O.2       1 <0>         0.0000
     14 O3          1.4463   -1.9247   -0.1105 O.2       1 <0>         0.0000
     15 O4          0.8556   -0.4191    1.9646 O.3       1 <0>         0.0000
     16 O5          0.8996    0.6457   -0.3547 O.3       1 <0>         0.0000
     17 O6         -0.9623   -0.9855    0.2818 O.3       1 <0>         0.0000
     18 P1          0.6399   -0.7644    0.4012 P.3       1 <0>         0.0000
     19 H1          5.1321    0.9936    2.5167 H         1 <0>         0.0000
     20 H2          3.5978   -2.0019    5.2146 H         1 <0>         0.0000
     21 H3          2.9645    1.0428    1.3460 H         1 <0>         0.0000
     22 H4          1.4338   -1.9463    4.0387 H         1 <0>         0.0000
     23 H5          1.6473    3.1815   -0.6651 H         1 <0>         0.0000
     24 H6          0.3559    2.7916   -1.8263 H         1 <0>         0.0000
     25 H7          0.0154    3.8660   -0.4754 H         1 <0>         0.0000
     26 H8         -3.2684   -2.2356   -0.1721 H         1 <0>         0.0000
     27 H9         -3.4920   -0.4798   -0.3596 H         1 <0>         0.0000
     28 H10        -3.5390   -1.5187   -1.7785 H         1 <0>         0.0000
     29 H11        -0.8959    1.5828   -0.0350 H         1 <0>         0.0000
     30 H12         0.3978    1.9686    1.1294 H         1 <0>         0.0000
     31 H13        -1.3442   -0.3369   -1.6258 H         1 <0>         0.0000
     32 H14        -1.1155   -2.0947   -1.4362 H         1 <0>         0.0000
@<TRIPOS>BOND
     1    1    3 ar
     2    1    5 ar
     3    2    4 ar
     4    2    5 ar
     5    3    6 ar
     6    4    6 ar
     7    5   11 1
     8    6   15 1
     9    7    9 1
    10    8   10 1
    11    9   16 1
    12   10   17 1
    13   11   12 1
    14   11   13 2
    15   14   18 2
    16   15   18 1
    17   16   18 1
    18   17   18 1
    19    1   19 1
    20    2   20 1
    21    3   21 1
    22    4   22 1
    23    7   23 1
    24    7   24 1
    25    7   25 1
    26    8   26 1
    27    8   27 1
    28    8   28 1
    29    9   29 1
    30    9   30 1
    31   10   31 1
    32   10   32 1
@<TRIPOS>MOLECULE
*****
   32    32     0     0     0
SMALL
NO_CHARGES

@<TRIPOS>ATOM
      1 C1          0.0913   -3.2019    4.2248 C.ar      1 <0>         0.0000
      2 C2          2.2805   -2.3264    4.7519 C.ar      1 <0>         0.0000
      3 C3         -0.0418   -2.2568    3.2077 C.ar      1 <0>         0.0000
      4 C4          2.1474   -1.3813    3.7348 C.ar      1 <0>         0.0000
      5 C5          1.2524   -3.2367    4.9970 C.ar      1 <0>         0.0000
      6 C6          0.9862   -1.3465    2.9627 C.ar      1 <0>         0.0000
      7 C7          0.9532    2.1233   -2.2286 C.3       1 <0>         0.0000
      8 C8         -3.2760   -0.4393    0.4984 C.3       1 <0>         0.0000
      9 C9          0.6411    0.7228   -1.7459 C.3       1 <0>         0.0000
     10 C10        -1.8528    0.0243    0.7248 C.3       1 <0>         0.0000
     11 N1          1.3882   -4.1986    6.0327 N.pl3     1 <0>         0.0000
     12 O1          0.4517   -5.0085    6.2370 O.3       1 <0>         0.0000
     13 O2          2.4408   -4.2124    6.7157 O.2       1 <0>         0.0000
     14 O3          1.4463   -1.9247   -0.1105 O.2       1 <0>         0.0000
     15 O4          0.8556   -0.4191    1.9646 O.3       1 <0>         0.0000
     16 O5          0.8996    0.6457   -0.3547 O.3       1 <0>         0.0000
     17 O6         -0.9623   -0.9855    0.2818 O.3       1 <0>         0.0000
     18 P1          0.6399   -0.7644    0.4012 P.3       1 <0>         0.0000
     19 H1         -0.7174   -3.9059    4.4052 H         1 <0>         0.0000
     20 H2          3.1907   -2.3420    5.3465 H         1 <0>         0.0000
     21 H3         -0.9486   -2.2348    2.6093 H         1 <0>         0.0000
     22 H4          2.9516   -0.6745    3.5489 H         1 <0>         0.0000
     23 H5          0.3289    2.8607   -1.7163 H         1 <0>         0.0000
     24 H6          2.0058    2.3671   -2.0514 H         1 <0>         0.0000
     25 H7          0.7845    2.2061   -3.3074 H         1 <0>         0.0000
     26 H8         -3.4612   -0.6268   -0.5629 H         1 <0>         0.0000
     27 H9         -3.4768   -1.3576    1.0600 H         1 <0>         0.0000
     28 H10        -3.9880    0.3131    0.8537 H         1 <0>         0.0000
     29 H11         1.2688   -0.0097   -2.2621 H         1 <0>         0.0000
     30 H12        -0.4111    0.4812   -1.9229 H         1 <0>         0.0000
     31 H13        -1.6742    0.2100    1.7881 H         1 <0>         0.0000
     32 H14        -1.6537    0.9414    0.1624 H         1 <0>         0.0000
@<TRIPOS>BOND
     1    1    3 ar
     2    1    5 ar
     3    2    4 ar
     4    2    5 ar
     5    3    6 ar
     6    4    6 ar
     7    5   11 1
     8    6   15 1
     9    7    9 1
    10    8   10 1
    11    9   16 1
    12   10   17 1
    13   11   12 1
    14   11   13 2
    15   14   18 2
    16   15   18 1
    17   16   18 1
    18   17   18 1
    19    1   19 1
    20    2   20 1
    21    3   21 1
    22    4   22 1
    23    7   23 1
    24    7   24 1
    25    7   25 1
    26    8   26 1
    27    8   27 1
    28    8   28 1
    29    9   29 1
    30    9   30 1
    31   10   31 1
    32   10   32 1
@<TRIPOS>MOLECULE
*****
   32    32     0     0     0
SMALL
NO_CHARGES

@<TRIPOS>ATOM
      1 C1          0.0913   -3.2019    4.2248 C.ar      1 <0>         0.0000
      2 C2          2.2805   -2.3264    4.7519 C.ar      1 <0>         0.0000
      3 C3         -0.0418   -2.2568    3.2077 C.ar      1 <0>         0.0000
      4 C4          2.1474   -1.3813    3.7348 C.ar      1 <0>         0.0000
      5 C5          1.2524   -3.2367    4.9970 C.ar      1 <0>         0.0000
      6 C6          0.9862   -1.3465    2.9627 C.ar      1 <0>         0.0000
      7 C7          0.5787    2.9742   -0.7699 C.3       1 <0>         0.0000
      8 C8         -3.0494   -1.3745   -0.8096 C.3       1 <0>         0.0000
      9 C9          0.1738    1.7847    0.0744 C.3       1 <0>         0.0000
     10 C10        -1.5563   -1.1996   -0.9873 C.3       1 <0>         0.0000
     11 N1          1.3882   -4.1986    6.0327 N.pl3     1 <0>         0.0000
     12 O1          0.4517   -5.0085    6.2370 O.3       1 <0>         0.0000
     13 O2          2.4408   -4.2124    6.7157 O.2       1 <0>         0.0000
     14 O3          1.4463   -1.9247   -0.1105 O.2       1 <0>         0.0000
     15 O4          0.8556   -0.4191    1.9646 O.3       1 <0>         0.0000
     16 O5          0.8996    0.6457   -0.3547 O.3       1 <0>         0.0000
     17 O6         -0.9623   -0.9855    0.2818 O.3       1 <0>         0.0000
     18 P1          0.6399   -0.7644    0.4012 P.3       1 <0>         0.0000
     19 H1         -0.7174   -3.9059    4.4052 H         1 <0>         0.0000
     20 H2          3.1907   -2.3420    5.3465 H         1 <0>         0.0000
     21 H3         -0.9486   -2.2348    2.6093 H         1 <0>         0.0000
     22 H4          2.9516   -0.6745    3.5489 H         1 <0>         0.0000
     23 H5          1.6473    3.1815   -0.6651 H         1 <0>         0.0000
     24 H6          0.3559    2.7916   -1.8263 H         1 <0>         0.0000
     25 H7          0.0154    3.8660   -0.4754 H         1 <0>         0.0000
     26 H8         -3.2684   -2.2356   -0.1721 H         1 <0>         0.0000
     27 H9         -3.4920   -0.4798   -0.3596 H         1 <0>         0.0000
     28 H10        -3.5390   -1.5187   -1.7785 H         1 <0>         0.0000
     29 H11        -0.8959    1.5828   -0.0350 H         1 <0>         0.0000
     30 H12         0.3978    1.9686    1.1294 H         1 <0>         0.0000
     31 H13        -1.3442   -0.3369   -1.6258 H         1 <0>         0.0000
     32 H14        -1.1155   -2.0947   -1.4362 H         1 <0>         0.0000
@<TRIPOS>BOND
     1    1    3 ar
     2    1    5 ar
     3    2    4 ar
     4    2    5 ar
     5    3    6 ar
     6    4    6 ar
     7    5   11 1
     8    6   15 1
     9    7    9 1
    10    8   10 1
    11    9   16 1
    12   10   17 1
    13   11   12 1
    14   11   13 2
    15   14   18 2
    16   15   18 1
    17   16   18 1
    18   17   18 1
    19    1   19 1
    20    2   20 1
    21    3   21 1
    22    4   22 1
    23    7   23 1
    24    7   24 1
    25    7   25 1
    26    8   26 1
    27    8   27 1
    28    8   28 1
    29    9   29 1
    30    9   30 1
    31   10   31 1
    32   10   32 1
@<TRIPOS>MOLECULE
*****
   32    32     0     0     0
SMALL
NO_CHARGES

@<TRIPOS>ATOM
      1 C1          2.1644   -3.2146    3.9417 C.ar      1 <0>         0.0000
      2 C2          0.2076   -2.3134    5.0353 C.ar      1 <0>         0.0000
      3 C3          2.0312   -2.2696    2.9245 C.ar      1 <0>         0.0000
      4 C4          0.0744   -1.3684    4.0181 C.ar      1 <0>         0.0000
      5 C5          1.2526   -3.2366    4.9971 C.ar      1 <0>         0.0000
      6 C6          0.9862   -1.3465    2.9627 C.ar      1 <0>         0.0000
      7 C7          2.2086    2.4977   -1.0990 C.3       1 <0>         0.0000
      8 C8         -3.2760   -0.4393    0.4984 C.3       1 <0>         0.0000
      9 C9          2.2078    1.1900   -0.3364 C.3       1 <0>         0.0000
     10 C10        -1.8528    0.0243    0.7248 C.3       1 <0>         0.0000
     11 N1          1.3878   -4.1986    6.0327 N.pl3     1 <0>         0.0000
     12 O1          2.3347   -5.0203    5.9796 O.3       1 <0>         0.0000
     13 O2          0.5564   -4.2012    6.9726 O.2       1 <0>         0.0000
     14 O3          1.4463   -1.9247   -0.1105 O.2       1 <0>         0.0000
     15 O4          0.8556   -0.4191    1.9646 O.3       1 <0>         0.0000
     16 O5          0.8996    0.6457   -0.3547 O.3       1 <0>         0.0000
     17 O6         -0.9623   -0.9855    0.2818 O.3       1 <0>         0.0000
     18 P1          0.6399   -0.7644    0.4012 P.3       1 <0>         0.0000
     19 H1          2.9837   -3.9282    3.9001 H         1 <0>         0.0000
     20 H2         -0.5104   -2.3196    5.8517 H         1 <0>         0.0000
     21 H3          2.7448   -2.2572    2.1052 H         1 <0>         0.0000
     22 H4         -0.7419   -0.6521    4.0531 H         1 <0>         0.0000
     23 H5          1.9097    2.3428   -2.1395 H         1 <0>         0.0000
     24 H6          1.5219    3.2145   -0.6369 H         1 <0>         0.0000
     25 H7          3.2040    2.9539   -1.0817 H         1 <0>         0.0000
     26 H8         -3.4612   -0.6268   -0.5629 H         1 <0>         0.0000
     27 H9         -3.4768   -1.3576    1.0600 H         1 <0>         0.0000
     28 H10        -3.9880    0.3131    0.8537 H         1 <0>         0.0000
     29 H11         2.5076    1.3519    0.7033 H         1 <0>         0.0000
     30 H12         2.8938    0.4747   -0.7999 H         1 <0>         0.0000
     31 H13        -1.6742    0.2100    1.7881 H         1 <0>         0.0000
     32 H14        -1.6537    0.9414    0.1624 H         1 <0>         0.0000
@<TRIPOS>BOND
     1    1    3 ar
     2    1    5 ar
     3    2    4 ar
     4    2    5 ar
     5    3    6 ar
     6    4    6 ar
     7    5   11 1
     8    6   15 1
     9    7    9 1
    10    8   10 1
    11    9   16 1
    12   10   17 1
    13   11   12 1
    14   11   13 2
    15   14   18 2
    16   15   18 1
    17   16   18 1
    18   17   18 1
    19    1   19 1
    20    2   20 1
    21    3   21 1
    22    4   22 1
    23    7   23 1
    24    7   24 1
    25    7   25 1
    26    8   26 1
    27    8   27 1
    28    8   28 1
    29    9   29 1
    30    9   30 1
    31   10   31 1
    32   10   32 1
@<TRIPOS>MOLECULE
*****
   32    32     0     0     0
SMALL
NO_CHARGES

@<TRIPOS>ATOM
      1 C1          4.3497   -0.5877    3.0599 C.ar      1 <0>         0.0000
      2 C2          3.4012    1.5255    3.7466 C.ar      1 <0>         0.0000
      3 C3          3.1326   -0.9456    2.4801 C.ar      1 <0>         0.0000
      4 C4          2.1841    1.1676    3.1668 C.ar      1 <0>         0.0000
      5 C5          4.4840    0.6478    3.6932 C.ar      1 <0>         0.0000
      6 C6          2.0498   -0.0680    2.5336 C.ar      1 <0>         0.0000
      7 C7          0.5787    2.9742   -0.7699 C.3       1 <0>         0.0000
      8 C8         -3.0680   -2.0405    0.6713 C.3       1 <0>         0.0000
      9 C9          0.1738    1.7847    0.0744 C.3       1 <0>         0.0000
     10 C10        -1.5805   -2.0713    0.9510 C.3       1 <0>         0.0000
     11 N1          5.7228    1.0124    4.2837 N.pl3     1 <0>         0.0000
     12 O1          6.6845    0.2085    4.2248 O.3       1 <0>         0.0000
     13 O2          5.8220    2.1284    4.8488 O.2       1 <0>         0.0000
     14 O3          1.4463   -1.9247   -0.1105 O.2       1 <0>         0.0000
     15 O4          0.8556   -0.4191    1.9646 O.3       1 <0>         0.0000
     16 O5          0.8996    0.6457   -0.3547 O.3       1 <0>         0.0000
     17 O6         -0.9623   -0.9855    0.2818 O.3       1 <0>         0.0000
     18 P1          0.6399   -0.7644    0.4012 P.3       1 <0>         0.0000
     19 H1          5.1859   -1.2810    3.0109 H         1 <0>         0.0000
     20 H2          3.4919    2.4914    4.2375 H         1 <0>         0.0000
     21 H3          3.0342   -1.9094    1.9879 H         1 <0>         0.0000
     22 H4          1.3441    1.8554    3.2120 H         1 <0>         0.0000
     23 H5          1.6473    3.1815   -0.6651 H         1 <0>         0.0000
     24 H6          0.3559    2.7916   -1.8263 H         1 <0>         0.0000
     25 H7          0.0154    3.8660   -0.4754 H         1 <0>         0.0000
     26 H8         -3.5136   -1.1092    1.0317 H         1 <0>         0.0000
     27 H9         -3.2608   -2.1323   -0.4027 H         1 <0>         0.0000
     28 H10        -3.5696   -2.8836    1.1579 H         1 <0>         0.0000
     29 H11        -0.8959    1.5828   -0.0350 H         1 <0>         0.0000
     30 H12         0.3978    1.9686    1.1294 H         1 <0>         0.0000
     31 H13        -1.1411   -3.0052    0.5880 H         1 <0>         0.0000
     32 H14        -1.3896   -1.9787    2.0243 H         1 <0>         0.0000
@<TRIPOS>BOND
     1    1    3 ar
     2    1    5 ar
     3    2    4 ar
     4    2    5 ar
     5    3    6 ar
     6    4    6 ar
     7    5   11 1
     8    6   15 1
     9    7    9 1
    10    8   10 1
    11    9   16 1
    12   10   17 1
    13   11   12 1
    14   11   13 2
    15   14   18 2
    16   15   18 1
    17   16   18 1
    18   17   18 1
    19    1   19 1
    20    2   20 1
    21    3   21 1
    22    4   22 1
    23    7   23 1
    24    7   24 1
    25    7   25 1
    26    8   26 1
    27    8   27 1
    28    8   28 1
    29    9   29 1
    30    9   30 1
    31   10   31 1
    32   10   32 1
@<TRIPOS>MOLECULE
*****
   32    32     0     0     0
SMALL
NO_CHARGES

@<TRIPOS>ATOM
      1 C1          2.1644   -3.2146    3.9417 C.ar      1 <0>         0.0000
      2 C2          0.2076   -2.3134    5.0353 C.ar      1 <0>         0.0000
      3 C3          2.0312   -2.2696    2.9245 C.ar      1 <0>         0.0000
      4 C4          0.0744   -1.3684    4.0181 C.ar      1 <0>         0.0000
      5 C5          1.2526   -3.2366    4.9971 C.ar      1 <0>         0.0000
      6 C6          0.9862   -1.3465    2.9627 C.ar      1 <0>         0.0000
      7 C7          0.9532    2.1233   -2.2286 C.3       1 <0>         0.0000
      8 C8         -3.2760   -0.4393    0.4984 C.3       1 <0>         0.0000
      9 C9          0.6411    0.7228   -1.7459 C.3       1 <0>         0.0000
     10 C10        -1.8528    0.0243    0.7248 C.3       1 <0>         0.0000
     11 N1          1.3878   -4.1986    6.0327 N.pl3     1 <0>         0.0000
     12 O1          2.3347   -5.0203    5.9796 O.3       1 <0>         0.0000
     13 O2          0.5564   -4.2012    6.9726 O.2       1 <0>         0.0000
     14 O3          1.4463   -1.9247   -0.1105 O.2       1 <0>         0.0000
     15 O4          0.8556   -0.4191    1.9646 O.3       1 <0>         0.0000
     16 O5          0.8996    0.6457   -0.3547 O.3       1 <0>         0.0000
     17 O6         -0.9623   -0.9855    0.2818 O.3       1 <0>         0.0000
     18 P1          0.6399   -0.7644    0.4012 P.3       1 <0>         0.0000
     19 H1          2.9837   -3.9282    3.9001 H         1 <0>         0.0000
     20 H2         -0.5104   -2.3196    5.8517 H         1 <0>         0.0000
     21 H3          2.7448   -2.2572    2.1052 H         1 <0>         0.0000
     22 H4         -0.7419   -0.6521    4.0531 H         1 <0>         0.0000
     23 H5          0.3289    2.8607   -1.7163 H         1 <0>         0.0000
     24 H6          2.0058    2.3671   -2.0514 H         1 <0>         0.0000
     25 H7          0.7845    2.2061   -3.3074 H         1 <0>         0.0000
     26 H8         -3.4612   -0.6268   -0.5629 H         1 <0>         0.0000
     27 H9         -3.4768   -1.3576    1.0600 H         1 <0>         0.0000
     28 H10        -3.9880    0.3131    0.8537 H         1 <0>         0.0000
     29 H11         1.2688   -0.0097   -2.2621 H         1 <0>         0.0000
     30 H12        -0.4111    0.4812   -1.9229 H         1 <0>         0.0000
     31 H13        -1.6742    0.2100    1.7881 H         1 <0>         0.0000
     32 H14        -1.6537    0.9414    0.1624 H         1 <0>         0.0000
@<TRIPOS>BOND
     1    1    3 ar
     2    1    5 ar
     3    2    4 ar
     4    2    5 ar
     5    3    6 ar
     6    4    6 ar
     7    5   11 1
     8    6   15 1
     9    7    9 1
    10    8   10 1
    11    9   16 1
    12   10   17 1
    13   11   12 1
    14   11   13 2
    15   14   18 2
    16   15   18 1
    17   16   18 1
    18   17   18 1
    19    1   19 1
    20    2   20 1
    21    3   21 1
    22    4   22 1
    23    7   23 1
    24    7   24 1
    25    7   25 1
    26    8   26 1
    27    8   27 1
    28    8   28 1
    29    9   29 1
    30    9   30 1
    31   10   31 1
    32   10   32 1
@<TRIPOS>MOLECULE
*****
   32    32     0     0     0
SMALL
NO_CHARGES

@<TRIPOS>ATOM
      1 C1          4.3497   -0.5877    3.0599 C.ar      1 <0>         0.0000
      2 C2          3.4012    1.5255    3.7466 C.ar      1 <0>         0.0000
      3 C3          3.1326   -0.9456    2.4801 C.ar      1 <0>         0.0000
      4 C4          2.1841    1.1676    3.1668 C.ar      1 <0>         0.0000
      5 C5          4.4840    0.6478    3.6932 C.ar      1 <0>         0.0000
      6 C6          2.0498   -0.0680    2.5336 C.ar      1 <0>         0.0000
      7 C7          0.5787    2.9742   -0.7699 C.3       1 <0>         0.0000
      8 C8         -3.0494   -1.3745   -0.8096 C.3       1 <0>         0.0000
      9 C9          0.1738    1.7847    0.0744 C.3       1 <0>         0.0000
     10 C10        -1.5563   -1.1996   -0.9873 C.3       1 <0>         0.0000
     11 N1          5.7228    1.0124    4.2837 N.pl3     1 <0>         0.0000
     12 O1          6.6845    0.2085    4.2248 O.3       1 <0>         0.0000
     13 O2          5.8220    2.1284    4.8488 O.2       1 <0>         0.0000
     14 O3          1.4463   -1.9247   -0.1105 O.2       1 <0>         0.0000
     15 O4          0.8556   -0.4191    1.9646 O.3       1 <0>         0.0000
     16 O5          0.8996    0.6457   -0.3547 O.3       1 <0>         0.0000
     17 O6         -0.9623   -0.9855    0.2818 O.3       1 <0>         0.0000
     18 P1          0.6399   -0.7644    0.4012 P.3       1 <0>         0.0000
     19 H1          5.1859   -1.2810    3.0109 H         1 <0>         0.0000
     20 H2          3.4919    2.4914    4.2375 H         1 <0>         0.0000
     21 H3          3.0342   -1.9094    1.9879 H         1 <0>         0.0000
     22 H4          1.3441    1.8554    3.2120 H         1 <0>         0.0000
     23 H5          1.6473    3.1815   -0.6651 H         1 <0>         0.0000
     24 H6          0.3559    2.7916   -1.8263 H         1 <0>         0.0000
     25 H7          0.0154    3.8660   -0.4754 H         1 <0>         0.0000
     26 H8         -3.2684   -2.2356   -0.1721 H         1 <0>         0.0000
     27 H9         -3.4920   -0.4798   -0.3596 H         1 <0>         0.0000
     28 H10        -3.5390   -1.5187   -1.7785 H         1 <0>         0.0000
     29 H11        -0.8959    1.5828   -0.0350 H         1 <0>         0.0000
     30 H12         0.3978    1.9686    1.1294 H         1 <0>         0.0000
     31 H13        -1.3442   -0.3369   -1.6258 H         1 <0>         0.0000
     32 H14        -1.1155   -2.0947   -1.4362 H         1 <0>         0.0000
@<TRIPOS>BOND
     1    1    3 ar
     2    1    5 ar
     3    2    4 ar
     4    2    5 ar
     5    3    6 ar
     6    4    6 ar
     7    5   11 1
     8    6   15 1
     9    7    9 1
    10    8   10 1
    11    9   16 1
    12   10   17 1
    13   11   12 1
    14   11   13 2
    15   14   18 2
    16   15   18 1
    17   16   18 1
    18   17   18 1
    19    1   19 1
    20    2   20 1
    21    3   21 1
    22    4   22 1
    23    7   23 1
    24    7   24 1
    25    7   25 1
    26    8   26 1
    27    8   27 1
    28    8   28 1
    29    9   29 1
    30    9   30 1
    31   10   31 1
    32   10   32 1
@<TRIPOS>MOLECULE
*****
   32    32     0     0     0
SMALL
NO_CHARGES

@<TRIPOS>ATOM
      1 C1          4.4166    0.3709    2.3278 C.ar      1 <0>         0.0000
      2 C2          3.3342    0.5671    4.4788 C.ar      1 <0>         0.0000
      3 C3          3.1996    0.0129    1.7480 C.ar      1 <0>         0.0000
      4 C4          2.1171    0.2092    3.8990 C.ar      1 <0>         0.0000
      5 C5          4.4840    0.6480    3.6932 C.ar      1 <0>         0.0000
      6 C6          2.0498   -0.0680    2.5336 C.ar      1 <0>         0.0000
      7 C7          0.5787    2.9742   -0.7699 C.3       1 <0>         0.0000
      8 C8         -1.1543   -0.7830   -2.0890 C.3       1 <0>         0.0000
      9 C9          0.1738    1.7847    0.0744 C.3       1 <0>         0.0000
     10 C10        -1.5090   -1.6064   -0.8692 C.3       1 <0>         0.0000
     11 N1          5.7228    1.0122    4.2838 N.pl3     1 <0>         0.0000
     12 O1          6.7454    1.0791    3.5597 O.3       1 <0>         0.0000
     13 O2          5.7614    1.2570    5.5140 O.2       1 <0>         0.0000
     14 O3          1.4463   -1.9247   -0.1105 O.2       1 <0>         0.0000
     15 O4          0.8556   -0.4191    1.9646 O.3       1 <0>         0.0000
     16 O5          0.8996    0.6457   -0.3547 O.3       1 <0>         0.0000
     17 O6         -0.9623   -0.9855    0.2818 O.3       1 <0>         0.0000
     18 P1          0.6399   -0.7644    0.4012 P.3       1 <0>         0.0000
     19 H1          5.3052    0.4305    1.7041 H         1 <0>         0.0000
     20 H2          3.3725    0.7799    5.5444 H         1 <0>         0.0000
     21 H3          3.1533   -0.2015    0.6837 H         1 <0>         0.0000
     22 H4          1.2249    0.1475    4.5162 H         1 <0>         0.0000
     23 H5          1.6473    3.1815   -0.6651 H         1 <0>         0.0000
     24 H6          0.3559    2.7916   -1.8263 H         1 <0>         0.0000
     25 H7          0.0154    3.8660   -0.4754 H         1 <0>         0.0000
     26 H8         -1.5640    0.2279   -2.0101 H         1 <0>         0.0000
     27 H9         -0.0678   -0.7160   -2.2070 H         1 <0>         0.0000
     28 H10        -1.5447   -1.2523   -2.9981 H         1 <0>         0.0000
     29 H11        -0.8959    1.5828   -0.0350 H         1 <0>         0.0000
     30 H12         0.3978    1.9686    1.1294 H         1 <0>         0.0000
     31 H13        -1.0963   -2.6161   -0.9545 H         1 <0>         0.0000
     32 H14        -2.5948   -1.6716   -0.7524 H         1 <0>         0.0000
@<TRIPOS>BOND
     1    1    3 ar
     2    1    5 ar
     3    2    4 ar
     4    2    5 ar
     5    3    6 ar
     6    4    6 ar
     7    5   11 1
     8    6   15 1
     9    7    9 1
    10    8   10 1
    11    9   16 1
    12   10   17 1
    13   11   12 1
    14   11   13 2
    15   14   18 2
    16   15   18 1
    17   16   18 1
    18   17   18 1
    19    1   19 1
    20    2   20 1
    21    3   21 1
    22    4   22 1
    23    7   23 1
    24    7   24 1
    25    7   25 1
    26    8   26 1
    27    8   27 1
    28    8   28 1
    29    9   29 1
    30    9   30 1
    31   10   31 1
    32   10   32 1
@<TRIPOS>MOLECULE
*****
   32    32     0     0     0
SMALL
NO_CHARGES

@<TRIPOS>ATOM
      1 C1          4.4166    0.3709    2.3278 C.ar      1 <0>         0.0000
      2 C2          3.3342    0.5671    4.4788 C.ar      1 <0>         0.0000
      3 C3          3.1996    0.0129    1.7480 C.ar      1 <0>         0.0000
      4 C4          2.1171    0.2092    3.8990 C.ar      1 <0>         0.0000
      5 C5          4.4840    0.6480    3.6932 C.ar      1 <0>         0.0000
      6 C6          2.0498   -0.0680    2.5336 C.ar      1 <0>         0.0000
      7 C7          0.5787    2.9742   -0.7699 C.3       1 <0>         0.0000
      8 C8         -1.2055   -2.6228    2.0018 C.3       1 <0>         0.0000
      9 C9          0.1738    1.7847    0.0744 C.3       1 <0>         0.0000
     10 C10        -1.5270   -2.2533    0.5694 C.3       1 <0>         0.0000
     11 N1          5.7228    1.0122    4.2838 N.pl3     1 <0>         0.0000
     12 O1          6.7454    1.0791    3.5597 O.3       1 <0>         0.0000
     13 O2          5.7614    1.2570    5.5140 O.2       1 <0>         0.0000
     14 O3          1.4463   -1.9247   -0.1105 O.2       1 <0>         0.0000
     15 O4          0.8556   -0.4191    1.9646 O.3       1 <0>         0.0000
     16 O5          0.8996    0.6457   -0.3547 O.3       1 <0>         0.0000
     17 O6         -0.9623   -0.9855    0.2818 O.3       1 <0>         0.0000
     18 P1          0.6399   -0.7644    0.4012 P.3       1 <0>         0.0000
     19 H1          5.3052    0.4305    1.7041 H         1 <0>         0.0000
     20 H2          3.3725    0.7799    5.5444 H         1 <0>         0.0000
     21 H3          3.1533   -0.2015    0.6837 H         1 <0>         0.0000
     22 H4          1.2249    0.1475    4.5162 H         1 <0>         0.0000
     23 H5          1.6473    3.1815   -0.6651 H         1 <0>         0.0000
     24 H6          0.3559    2.7916   -1.8263 H         1 <0>         0.0000
     25 H7          0.0154    3.8660   -0.4754 H         1 <0>         0.0000
     26 H8         -0.1245   -2.6789    2.1571 H         1 <0>         0.0000
     27 H9         -1.6244   -1.8850    2.6940 H         1 <0>         0.0000
     28 H10        -1.6501   -3.5897    2.2599 H         1 <0>         0.0000
     29 H11        -0.8959    1.5828   -0.0350 H         1 <0>         0.0000
     30 H12         0.3978    1.9686    1.1294 H         1 <0>         0.0000
     31 H13        -2.6095   -2.1989    0.4208 H         1 <0>         0.0000
     32 H14        -1.1071   -2.9910   -0.1209 H         1 <0>         0.0000
@<TRIPOS>BOND
     1    1    3 ar
     2    1    5 ar
     3    2    4 ar
     4    2    5 ar
     5    3    6 ar
     6    4    6 ar
     7    5   11 1
     8    6   15 1
     9    7    9 1
    10    8   10 1
    11    9   16 1
    12   10   17 1
    13   11   12 1
    14   11   13 2
    15   14   18 2
    16   15   18 1
    17   16   18 1
    18   17   18 1
    19    1   19 1
    20    2   20 1
    21    3   21 1
    22    4   22 1
    23    7   23 1
    24    7   24 1
    25    7   25 1
    26    8   26 1
    27    8   27 1
    28    8   28 1
    29    9   29 1
    30    9   30 1
    31   10   31 1
    32   10   32 1
@<TRIPOS>MOLECULE
*****
   32    32     0     0     0
SMALL
NO_CHARGES

@<TRIPOS>ATOM
      1 C1          4.3497   -0.5877    3.0599 C.ar      1 <0>         0.0000
      2 C2          3.4012    1.5255    3.7466 C.ar      1 <0>         0.0000
      3 C3          3.1326   -0.9456    2.4801 C.ar      1 <0>         0.0000
      4 C4          2.1841    1.1676    3.1668 C.ar      1 <0>         0.0000
      5 C5          4.4840    0.6478    3.6932 C.ar      1 <0>         0.0000
      6 C6          2.0498   -0.0680    2.5336 C.ar      1 <0>         0.0000
      7 C7          2.2245    2.3317   -1.4032 C.3       1 <0>         0.0000
      8 C8         -3.2760   -0.4393    0.4984 C.3       1 <0>         0.0000
      9 C9          2.2277    0.9829   -0.7159 C.3       1 <0>         0.0000
     10 C10        -1.8528    0.0243    0.7248 C.3       1 <0>         0.0000
     11 N1          5.7228    1.0124    4.2837 N.pl3     1 <0>         0.0000
     12 O1          6.6845    0.2085    4.2248 O.3       1 <0>         0.0000
     13 O2          5.8220    2.1284    4.8488 O.2       1 <0>         0.0000
     14 O3          1.4463   -1.9247   -0.1105 O.2       1 <0>         0.0000
     15 O4          0.8556   -0.4191    1.9646 O.3       1 <0>         0.0000
     16 O5          0.8996    0.6457   -0.3547 O.3       1 <0>         0.0000
     17 O6         -0.9623   -0.9855    0.2818 O.3       1 <0>         0.0000
     18 P1          0.6399   -0.7644    0.4012 P.3       1 <0>         0.0000
     19 H1          5.1859   -1.2810    3.0109 H         1 <0>         0.0000
     20 H2          3.4919    2.4914    4.2375 H         1 <0>         0.0000
     21 H3          3.0342   -1.9094    1.9879 H         1 <0>         0.0000
     22 H4          1.3441    1.8554    3.2120 H         1 <0>         0.0000
     23 H5          1.6123    2.3067   -2.3089 H         1 <0>         0.0000
     24 H6          1.8340    3.1051   -0.7337 H         1 <0>         0.0000
     25 H7          3.2431    2.6294   -1.6734 H         1 <0>         0.0000
     26 H8         -3.4612   -0.6268   -0.5629 H         1 <0>         0.0000
     27 H9         -3.4768   -1.3576    1.0600 H         1 <0>         0.0000
     28 H10        -3.9880    0.3131    0.8537 H         1 <0>         0.0000
     29 H11         2.8418    1.0147    0.1891 H         1 <0>         0.0000
     30 H12         2.6174    0.2112   -1.3864 H         1 <0>         0.0000
     31 H13        -1.6742    0.2100    1.7881 H         1 <0>         0.0000
     32 H14        -1.6537    0.9414    0.1624 H         1 <0>         0.0000
@<TRIPOS>BOND
     1    1    3 ar
     2    1    5 ar
     3    2    4 ar
     4    2    5 ar
     5    3    6 ar
     6    4    6 ar
     7    5   11 1
     8    6   15 1
     9    7    9 1
    10    8   10 1
    11    9   16 1
    12   10   17 1
    13   11   12 1
    14   11   13 2
    15   14   18 2
    16   15   18 1
    17   16   18 1
    18   17   18 1
    19    1   19 1
    20    2   20 1
    21    3   21 1
    22    4   22 1
    23    7   23 1
    24    7   24 1
    25    7   25 1
    26    8   26 1
    27    8   27 1
    28    8   28 1
    29    9   29 1
    30    9   30 1
    31   10   31 1
    32   10   32 1
@<TRIPOS>MOLECULE
*****
   32    32     0     0     0
SMALL
NO_CHARGES

@<TRIPOS>ATOM
      1 C1         -0.1305   -3.4373    3.7963 C.ar      1 <0>         0.0000
      2 C2          0.5734   -1.7451    5.3704 C.ar      1 <0>         0.0000
      3 C3          0.1250   -2.5619    2.7409 C.ar      1 <0>         0.0000
      4 C4          0.8290   -0.8696    4.3150 C.ar      1 <0>         0.0000
      5 C5          0.0936   -3.0289    5.1111 C.ar      1 <0>         0.0000
      6 C6          0.6048   -1.2781    3.0002 C.ar      1 <0>         0.0000
      7 C7          0.5787    2.9742   -0.7699 C.3       1 <0>         0.0000
      8 C8         -1.1543   -0.7830   -2.0890 C.3       1 <0>         0.0000
      9 C9          0.1738    1.7847    0.0744 C.3       1 <0>         0.0000
     10 C10        -1.5090   -1.6064   -0.8692 C.3       1 <0>         0.0000
     11 N1         -0.1666   -3.9198    6.1857 N.pl3     1 <0>         0.0000
     12 O1         -0.5980   -5.0703    5.9310 O.3       1 <0>         0.0000
     13 O2          0.0415   -3.5321    7.3609 O.2       1 <0>         0.0000
     14 O3          1.4463   -1.9247   -0.1105 O.2       1 <0>         0.0000
     15 O4          0.8556   -0.4191    1.9646 O.3       1 <0>         0.0000
     16 O5          0.8996    0.6457   -0.3547 O.3       1 <0>         0.0000
     17 O6         -0.9623   -0.9855    0.2818 O.3       1 <0>         0.0000
     18 P1          0.6399   -0.7644    0.4012 P.3       1 <0>         0.0000
     19 H1         -0.5039   -4.4353    3.5803 H         1 <0>         0.0000
     20 H2          0.7521   -1.4136    6.3904 H         1 <0>         0.0000
     21 H3         -0.0512   -2.8858    1.7187 H         1 <0>         0.0000
     22 H4          1.2023    0.1293    4.5234 H         1 <0>         0.0000
     23 H5          1.6473    3.1815   -0.6651 H         1 <0>         0.0000
     24 H6          0.3559    2.7916   -1.8263 H         1 <0>         0.0000
     25 H7          0.0154    3.8660   -0.4754 H         1 <0>         0.0000
     26 H8         -1.5640    0.2279   -2.0101 H         1 <0>         0.0000
     27 H9         -0.0678   -0.7160   -2.2070 H         1 <0>         0.0000
     28 H10        -1.5447   -1.2523   -2.9981 H         1 <0>         0.0000
     29 H11        -0.8959    1.5828   -0.0350 H         1 <0>         0.0000
     30 H12         0.3978    1.9686    1.1294 H         1 <0>         0.0000
     31 H13        -1.0963   -2.6161   -0.9545 H         1 <0>         0.0000
     32 H14        -2.5948   -1.6716   -0.7524 H         1 <0>         0.0000
@<TRIPOS>BOND
     1    1    3 ar
     2    1    5 ar
     3    2    4 ar
     4    2    5 ar
     5    3    6 ar
     6    4    6 ar
     7    5   11 1
     8    6   15 1
     9    7    9 1
    10    8   10 1
    11    9   16 1
    12   10   17 1
    13   11   12 1
    14   11   13 2
    15   14   18 2
    16   15   18 1
    17   16   18 1
    18   17   18 1
    19    1   19 1
    20    2   20 1
    21    3   21 1
    22    4   22 1
    23    7   23 1
    24    7   24 1
    25    7   25 1
    26    8   26 1
    27    8   27 1
    28    8   28 1
    29    9   29 1
    30    9   30 1
    31   10   31 1
    32   10   32 1
@<TRIPOS>MOLECULE
*****
   32    32     0     0     0
SMALL
NO_CHARGES

@<TRIPOS>ATOM
      1 C1          4.4166    0.3709    2.3278 C.ar      1 <0>         0.0000
      2 C2          3.3342    0.5671    4.4788 C.ar      1 <0>         0.0000
      3 C3          3.1996    0.0129    1.7480 C.ar      1 <0>         0.0000
      4 C4          2.1171    0.2092    3.8990 C.ar      1 <0>         0.0000
      5 C5          4.4840    0.6480    3.6932 C.ar      1 <0>         0.0000
      6 C6          2.0498   -0.0680    2.5336 C.ar      1 <0>         0.0000
      7 C7         -0.1849    0.0697   -2.4016 C.3       1 <0>         0.0000
      8 C8         -3.2760   -0.4393    0.4984 C.3       1 <0>         0.0000
      9 C9          1.0649    0.6361   -1.7621 C.3       1 <0>         0.0000
     10 C10        -1.8528    0.0243    0.7248 C.3       1 <0>         0.0000
     11 N1          5.7228    1.0122    4.2838 N.pl3     1 <0>         0.0000
     12 O1          6.7454    1.0791    3.5597 O.3       1 <0>         0.0000
     13 O2          5.7614    1.2570    5.5140 O.2       1 <0>         0.0000
     14 O3          1.4463   -1.9247   -0.1105 O.2       1 <0>         0.0000
     15 O4          0.8556   -0.4191    1.9646 O.3       1 <0>         0.0000
     16 O5          0.8996    0.6457   -0.3547 O.3       1 <0>         0.0000
     17 O6         -0.9623   -0.9855    0.2818 O.3       1 <0>         0.0000
     18 P1          0.6399   -0.7644    0.4012 P.3       1 <0>         0.0000
     19 H1          5.3052    0.4305    1.7041 H         1 <0>         0.0000
     20 H2          3.3725    0.7799    5.5444 H         1 <0>         0.0000
     21 H3          3.1533   -0.2015    0.6837 H         1 <0>         0.0000
     22 H4          1.2249    0.1475    4.5162 H         1 <0>         0.0000
     23 H5         -0.3658   -0.9547   -2.0645 H         1 <0>         0.0000
     24 H6         -1.0574    0.6829   -2.1532 H         1 <0>         0.0000
     25 H7         -0.0948    0.0718   -3.4929 H         1 <0>         0.0000
     26 H8         -3.4612   -0.6268   -0.5629 H         1 <0>         0.0000
     27 H9         -3.4768   -1.3576    1.0600 H         1 <0>         0.0000
     28 H10        -3.9880    0.3131    0.8537 H         1 <0>         0.0000
     29 H11         1.2400    1.6607   -2.1034 H         1 <0>         0.0000
     30 H12         1.9355    0.0218   -2.0106 H         1 <0>         0.0000
     31 H13        -1.6742    0.2100    1.7881 H         1 <0>         0.0000
     32 H14        -1.6537    0.9414    0.1624 H         1 <0>         0.0000
@<TRIPOS>BOND
     1    1    3 ar
     2    1    5 ar
     3    2    4 ar
     4    2    5 ar
     5    3    6 ar
     6    4    6 ar
     7    5   11 1
     8    6   15 1
     9    7    9 1
    10    8   10 1
    11    9   16 1
    12   10   17 1
    13   11   12 1
    14   11   13 2
    15   14   18 2
    16   15   18 1
    17   16   18 1
    18   17   18 1
    19    1   19 1
    20    2   20 1
    21    3   21 1
    22    4   22 1
    23    7   23 1
    24    7   24 1
    25    7   25 1
    26    8   26 1
    27    8   27 1
    28    8   28 1
    29    9   29 1
    30    9   30 1
    31   10   31 1
    32   10   32 1
@<TRIPOS>MOLECULE
*****
   32    32     0     0     0
SMALL
NO_CHARGES

@<TRIPOS>ATOM
      1 C1          0.0913   -3.2019    4.2248 C.ar      1 <0>         0.0000
      2 C2          2.2805   -2.3264    4.7519 C.ar      1 <0>         0.0000
      3 C3         -0.0418   -2.2568    3.2077 C.ar      1 <0>         0.0000
      4 C4          2.1474   -1.3813    3.7348 C.ar      1 <0>         0.0000
      5 C5          1.2524   -3.2367    4.9970 C.ar      1 <0>         0.0000
      6 C6          0.9862   -1.3465    2.9627 C.ar      1 <0>         0.0000
      7 C7          2.2086    2.4977   -1.0990 C.3       1 <0>         0.0000
      8 C8         -3.0133   -1.6852   -0.7194 C.3       1 <0>         0.0000
      9 C9          2.2078    1.1900   -0.3364 C.3       1 <0>         0.0000
     10 C10        -1.5090   -1.6064   -0.8692 C.3       1 <0>         0.0000
     11 N1          1.3882   -4.1986    6.0327 N.pl3     1 <0>         0.0000
     12 O1          0.4517   -5.0085    6.2370 O.3       1 <0>         0.0000
     13 O2          2.4408   -4.2124    6.7157 O.2       1 <0>         0.0000
     14 O3          1.4463   -1.9247   -0.1105 O.2       1 <0>         0.0000
     15 O4          0.8556   -0.4191    1.9646 O.3       1 <0>         0.0000
     16 O5          0.8996    0.6457   -0.3547 O.3       1 <0>         0.0000
     17 O6         -0.9623   -0.9855    0.2818 O.3       1 <0>         0.0000
     18 P1          0.6399   -0.7644    0.4012 P.3       1 <0>         0.0000
     19 H1         -0.7174   -3.9059    4.4052 H         1 <0>         0.0000
     20 H2          3.1907   -2.3420    5.3465 H         1 <0>         0.0000
     21 H3         -0.9486   -2.2348    2.6093 H         1 <0>         0.0000
     22 H4          2.9516   -0.6745    3.5489 H         1 <0>         0.0000
     23 H5          1.9097    2.3428   -2.1395 H         1 <0>         0.0000
     24 H6          1.5219    3.2145   -0.6369 H         1 <0>         0.0000
     25 H7          3.2040    2.9539   -1.0817 H         1 <0>         0.0000
     26 H8         -3.2875   -2.2758    0.1591 H         1 <0>         0.0000
     27 H9         -3.4444   -0.6836   -0.6208 H         1 <0>         0.0000
     28 H10        -3.4660   -2.1406   -1.6065 H         1 <0>         0.0000
     29 H11         2.5076    1.3519    0.7033 H         1 <0>         0.0000
     30 H12         2.8938    0.4747   -0.7999 H         1 <0>         0.0000
     31 H13        -1.2415   -1.0144   -1.7496 H         1 <0>         0.0000
     32 H14        -1.0797   -2.6080   -0.9669 H         1 <0>         0.0000
@<TRIPOS>BOND
     1    1    3 ar
     2    1    5 ar
     3    2    4 ar
     4    2    5 ar
     5    3    6 ar
     6    4    6 ar
     7    5   11 1
     8    6   15 1
     9    7    9 1
    10    8   10 1
    11    9   16 1
    12   10   17 1
    13   11   12 1
    14   11   13 2
    15   14   18 2
    16   15   18 1
    17   16   18 1
    18   17   18 1
    19    1   19 1
    20    2   20 1
    21    3   21 1
    22    4   22 1
    23    7   23 1
    24    7   24 1
    25    7   25 1
    26    8   26 1
    27    8   27 1
    28    8   28 1
    29    9   29 1
    30    9   30 1
    31   10   31 1
    32   10   32 1
@<TRIPOS>MOLECULE
*****
   32    32     0     0     0
SMALL
NO_CHARGES

@<TRIPOS>ATOM
      1 C1          0.4869   -3.5298    3.8684 C.ar      1 <0>         0.0000
      2 C2          1.8850   -1.9985    5.1084 C.ar      1 <0>         0.0000
      3 C3          0.3537   -2.5847    2.8513 C.ar      1 <0>         0.0000
      4 C4          1.7519   -1.0533    4.0912 C.ar      1 <0>         0.0000
      5 C5          1.2525   -3.2367    4.9970 C.ar      1 <0>         0.0000
      6 C6          0.9862   -1.3465    2.9627 C.ar      1 <0>         0.0000
      7 C7          3.0787    1.0430    0.5347 C.3       1 <0>         0.0000
      8 C8         -3.2760   -0.4393    0.4984 C.3       1 <0>         0.0000
      9 C9          2.2277    0.9829   -0.7159 C.3       1 <0>         0.0000
     10 C10        -1.8528    0.0243    0.7248 C.3       1 <0>         0.0000
     11 N1          1.3881   -4.1986    6.0327 N.pl3     1 <0>         0.0000
     12 O1          0.8110   -5.3064    5.9132 O.3       1 <0>         0.0000
     13 O2          2.0811   -3.9144    7.0395 O.2       1 <0>         0.0000
     14 O3          1.4463   -1.9247   -0.1105 O.2       1 <0>         0.0000
     15 O4          0.8556   -0.4191    1.9646 O.3       1 <0>         0.0000
     16 O5          0.8996    0.6457   -0.3547 O.3       1 <0>         0.0000
     17 O6         -0.9623   -0.9855    0.2818 O.3       1 <0>         0.0000
     18 P1          0.6399   -0.7644    0.4012 P.3       1 <0>         0.0000
     19 H1         -0.0110   -4.4912    3.7689 H         1 <0>         0.0000
     20 H2          2.4844   -1.7567    5.9827 H         1 <0>         0.0000
     21 H3         -0.2437   -2.8189    1.9744 H         1 <0>         0.0000
     22 H4          2.2467   -0.0904    4.1839 H         1 <0>         0.0000
     23 H5          2.7021    1.8013    1.2268 H         1 <0>         0.0000
     24 H6          3.0869    0.0732    1.0430 H         1 <0>         0.0000
     25 H7          4.1180    1.2792    0.2832 H         1 <0>         0.0000
     26 H8         -3.4612   -0.6268   -0.5629 H         1 <0>         0.0000
     27 H9         -3.4768   -1.3576    1.0600 H         1 <0>         0.0000
     28 H10        -3.9880    0.3131    0.8537 H         1 <0>         0.0000
     29 H11         2.6097    0.2226   -1.4038 H         1 <0>         0.0000
     30 H12         2.2200    1.9528   -1.2221 H         1 <0>         0.0000
     31 H13        -1.6742    0.2100    1.7881 H         1 <0>         0.0000
     32 H14        -1.6537    0.9414    0.1624 H         1 <0>         0.0000
@<TRIPOS>BOND
     1    1    3 ar
     2    1    5 ar
     3    2    4 ar
     4    2    5 ar
     5    3    6 ar
     6    4    6 ar
     7    5   11 1
     8    6   15 1
     9    7    9 1
    10    8   10 1
    11    9   16 1
    12   10   17 1
    13   11   12 1
    14   11   13 2
    15   14   18 2
    16   15   18 1
    17   16   18 1
    18   17   18 1
    19    1   19 1
    20    2   20 1
    21    3   21 1
    22    4   22 1
    23    7   23 1
    24    7   24 1
    25    7   25 1
    26    8   26 1
    27    8   27 1
    28    8   28 1
    29    9   29 1
    30    9   30 1
    31   10   31 1
    32   10   32 1
@<TRIPOS>MOLECULE
*****
   32    32     0     0     0
SMALL
NO_CHARGES

@<TRIPOS>ATOM
      1 C1          4.0784    0.6681    3.3314 C.ar      1 <0>         0.0000
      2 C2          3.7176   -1.6536    3.8941 C.ar      1 <0>         0.0000
      3 C3          2.8523    0.6977    2.6671 C.ar      1 <0>         0.0000
      4 C4          2.4914   -1.6240    3.2298 C.ar      1 <0>         0.0000
      5 C5          4.5111   -0.5076    3.9449 C.ar      1 <0>         0.0000
      6 C6          2.0588   -0.4483    2.6163 C.ar      1 <0>         0.0000
      7 C7          0.5787    2.9742   -0.7699 C.3       1 <0>         0.0000
      8 C8         -3.0680   -2.0405    0.6713 C.3       1 <0>         0.0000
      9 C9          0.1738    1.7847    0.0744 C.3       1 <0>         0.0000
     10 C10        -1.5805   -2.0713    0.9510 C.3       1 <0>         0.0000
     11 N1          5.7594   -0.5381    4.6210 N.pl3     1 <0>         0.0000
     12 O1          6.4582    0.5035    4.6551 O.3       1 <0>         0.0000
     13 O2          6.1299   -1.6062    5.1657 O.2       1 <0>         0.0000
     14 O3          1.4463   -1.9247   -0.1105 O.2       1 <0>         0.0000
     15 O4          0.8556   -0.4191    1.9646 O.3       1 <0>         0.0000
     16 O5          0.8996    0.6457   -0.3547 O.3       1 <0>         0.0000
     17 O6         -0.9623   -0.9855    0.2818 O.3       1 <0>         0.0000
     18 P1          0.6399   -0.7644    0.4012 P.3       1 <0>         0.0000
     19 H1          4.6871    1.5685    3.3639 H         1 <0>         0.0000
     20 H2          4.0428   -2.5768    4.3674 H         1 <0>         0.0000
     21 H3          2.5204    1.6166    2.1915 H         1 <0>         0.0000
     22 H4          1.8778   -2.5201    3.1933 H         1 <0>         0.0000
     23 H5          1.6473    3.1815   -0.6651 H         1 <0>         0.0000
     24 H6          0.3559    2.7916   -1.8263 H         1 <0>         0.0000
     25 H7          0.0154    3.8660   -0.4754 H         1 <0>         0.0000
     26 H8         -3.5136   -1.1092    1.0317 H         1 <0>         0.0000
     27 H9         -3.2608   -2.1323   -0.4027 H         1 <0>         0.0000
     28 H10        -3.5696   -2.8836    1.1579 H         1 <0>         0.0000
     29 H11        -0.8959    1.5828   -0.0350 H         1 <0>         0.0000
     30 H12         0.3978    1.9686    1.1294 H         1 <0>         0.0000
     31 H13        -1.1411   -3.0052    0.5880 H         1 <0>         0.0000
     32 H14        -1.3896   -1.9787    2.0243 H         1 <0>         0.0000
@<TRIPOS>BOND
     1    1    3 ar
     2    1    5 ar
     3    2    4 ar
     4    2    5 ar
     5    3    6 ar
     6    4    6 ar
     7    5   11 1
     8    6   15 1
     9    7    9 1
    10    8   10 1
    11    9   16 1
    12   10   17 1
    13   11   12 1
    14   11   13 2
    15   14   18 2
    16   15   18 1
    17   16   18 1
    18   17   18 1
    19    1   19 1
    20    2   20 1
    21    3   21 1
    22    4   22 1
    23    7   23 1
    24    7   24 1
    25    7   25 1
    26    8   26 1
    27    8   27 1
    28    8   28 1
    29    9   29 1
    30    9   30 1
    31   10   31 1
    32   10   32 1
@<TRIPOS>MOLECULE
*****
   32    32     0     0     0
SMALL
NO_CHARGES

@<TRIPOS>ATOM
      1 C1          1.0277   -3.3697    4.1328 C.ar      1 <0>         0.0000
      2 C2         -0.5847   -1.8125    5.0340 C.ar      1 <0>         0.0000
      3 C3          1.2833   -2.4944    3.0774 C.ar      1 <0>         0.0000
      4 C4         -0.3292   -0.9371    3.9785 C.ar      1 <0>         0.0000
      5 C5          0.0937   -3.0288    5.1112 C.ar      1 <0>         0.0000
      6 C6          0.6048   -1.2781    3.0002 C.ar      1 <0>         0.0000
      7 C7          0.5787    2.9742   -0.7699 C.3       1 <0>         0.0000
      8 C8         -3.0270   -2.1796    0.3797 C.3       1 <0>         0.0000
      9 C9          0.1738    1.7847    0.0744 C.3       1 <0>         0.0000
     10 C10        -1.5270   -2.2533    0.5694 C.3       1 <0>         0.0000
     11 N1         -0.1668   -3.9198    6.1856 N.pl3     1 <0>         0.0000
     12 O1          0.4541   -5.0090    6.2366 O.3       1 <0>         0.0000
     13 O2         -1.0112   -3.5938    7.0548 O.2       1 <0>         0.0000
     14 O3          1.4463   -1.9247   -0.1105 O.2       1 <0>         0.0000
     15 O4          0.8556   -0.4191    1.9646 O.3       1 <0>         0.0000
     16 O5          0.8996    0.6457   -0.3547 O.3       1 <0>         0.0000
     17 O6         -0.9623   -0.9855    0.2818 O.3       1 <0>         0.0000
     18 P1          0.6399   -0.7644    0.4012 P.3       1 <0>         0.0000
     19 H1          1.5637   -4.3144    4.1813 H         1 <0>         0.0000
     20 H2         -1.3156   -1.5344    5.7894 H         1 <0>         0.0000
     21 H3          2.0122   -2.7653    2.3185 H         1 <0>         0.0000
     22 H4         -0.8612    0.0088    3.9236 H         1 <0>         0.0000
     23 H5          1.6473    3.1815   -0.6651 H         1 <0>         0.0000
     24 H6          0.3559    2.7916   -1.8263 H         1 <0>         0.0000
     25 H7          0.0154    3.8660   -0.4754 H         1 <0>         0.0000
     26 H8         -3.4695   -1.4398    1.0526 H         1 <0>         0.0000
     27 H9         -3.2728   -1.9101   -0.6527 H         1 <0>         0.0000
     28 H10        -3.4887   -3.1536    0.5729 H         1 <0>         0.0000
     29 H11        -0.8959    1.5828   -0.0350 H         1 <0>         0.0000
     30 H12         0.3978    1.9686    1.1294 H         1 <0>         0.0000
     31 H13        -1.0907   -2.9950   -0.1065 H         1 <0>         0.0000
     32 H14        -1.2832   -2.5218    1.6016 H         1 <0>         0.0000
@<TRIPOS>BOND
     1    1    3 ar
     2    1    5 ar
     3    2    4 ar
     4    2    5 ar
     5    3    6 ar
     6    4    6 ar
     7    5   11 1
     8    6   15 1
     9    7    9 1
    10    8   10 1
    11    9   16 1
    12   10   17 1
    13   11   12 1
    14   11   13 2
    15   14   18 2
    16   15   18 1
    17   16   18 1
    18   17   18 1
    19    1   19 1
    20    2   20 1
    21    3   21 1
    22    4   22 1
    23    7   23 1
    24    7   24 1
    25    7   25 1
    26    8   26 1
    27    8   27 1
    28    8   28 1
    29    9   29 1
    30    9   30 1
    31   10   31 1
    32   10   32 1
@<TRIPOS>MOLECULE
*****
   32    32     0     0     0
SMALL
NO_CHARGES

@<TRIPOS>ATOM
      1 C1          4.0151   -1.6648    3.3439 C.ar      1 <0>         0.0000
      2 C2          3.7811    0.6790    3.8811 C.ar      1 <0>         0.0000
      3 C3          2.7889   -1.6351    2.6798 C.ar      1 <0>         0.0000
      4 C4          2.5548    0.7088    3.2170 C.ar      1 <0>         0.0000
      5 C5          4.5112   -0.5077    3.9447 C.ar      1 <0>         0.0000
      6 C6          2.0588   -0.4483    2.6163 C.ar      1 <0>         0.0000
      7 C7          0.9532    2.1233   -2.2286 C.3       1 <0>         0.0000
      8 C8         -3.0680   -2.0405    0.6713 C.3       1 <0>         0.0000
      9 C9          0.6411    0.7228   -1.7459 C.3       1 <0>         0.0000
     10 C10        -1.5805   -2.0713    0.9510 C.3       1 <0>         0.0000
     11 N1          5.7594   -0.5377    4.6210 N.pl3     1 <0>         0.0000
     12 O1          6.4005   -1.6154    4.6668 O.3       1 <0>         0.0000
     13 O2          6.1871    0.5143    5.1549 O.2       1 <0>         0.0000
     14 O3          1.4463   -1.9247   -0.1105 O.2       1 <0>         0.0000
     15 O4          0.8556   -0.4191    1.9646 O.3       1 <0>         0.0000
     16 O5          0.8996    0.6457   -0.3547 O.3       1 <0>         0.0000
     17 O6         -0.9623   -0.9855    0.2818 O.3       1 <0>         0.0000
     18 P1          0.6399   -0.7644    0.4012 P.3       1 <0>         0.0000
     19 H1          4.5743   -2.5963    3.3858 H         1 <0>         0.0000
     20 H2          4.1556    1.5881    4.3454 H         1 <0>         0.0000
     21 H3          2.4078   -2.5395    2.2135 H         1 <0>         0.0000
     22 H4          1.9905    1.6362    3.1712 H         1 <0>         0.0000
     23 H5          0.3289    2.8607   -1.7163 H         1 <0>         0.0000
     24 H6          2.0058    2.3671   -2.0514 H         1 <0>         0.0000
     25 H7          0.7845    2.2061   -3.3074 H         1 <0>         0.0000
     26 H8         -3.5136   -1.1092    1.0317 H         1 <0>         0.0000
     27 H9         -3.2608   -2.1323   -0.4027 H         1 <0>         0.0000
     28 H10        -3.5696   -2.8836    1.1579 H         1 <0>         0.0000
     29 H11         1.2688   -0.0097   -2.2621 H         1 <0>         0.0000
     30 H12        -0.4111    0.4812   -1.9229 H         1 <0>         0.0000
     31 H13        -1.1411   -3.0052    0.5880 H         1 <0>         0.0000
     32 H14        -1.3896   -1.9787    2.0243 H         1 <0>         0.0000
@<TRIPOS>BOND
     1    1    3 ar
     2    1    5 ar
     3    2    4 ar
     4    2    5 ar
     5    3    6 ar
     6    4    6 ar
     7    5   11 1
     8    6   15 1
     9    7    9 1
    10    8   10 1
    11    9   16 1
    12   10   17 1
    13   11   12 1
    14   11   13 2
    15   14   18 2
    16   15   18 1
    17   16   18 1
    18   17   18 1
    19    1   19 1
    20    2   20 1
    21    3   21 1
    22    4   22 1
    23    7   23 1
    24    7   24 1
    25    7   25 1
    26    8   26 1
    27    8   27 1
    28    8   28 1
    29    9   29 1
    30    9   30 1
    31   10   31 1
    32   10   32 1
@<TRIPOS>MOLECULE
*****
   32    32     0     0     0
SMALL
NO_CHARGES

@<TRIPOS>ATOM
      1 C1          4.2869    0.5481    2.8177 C.ar      1 <0>         0.0000
      2 C2          2.7543    2.2014    3.6866 C.ar      1 <0>         0.0000
      3 C3          3.2128   -0.1749    2.2989 C.ar      1 <0>         0.0000
      4 C4          1.6802    1.4784    3.1677 C.ar      1 <0>         0.0000
      5 C5          4.0576    1.7362    3.5117 C.ar      1 <0>         0.0000
      6 C6          1.9095    0.2902    2.4738 C.ar      1 <0>         0.0000
      7 C7          1.2927    2.0538   -2.2415 C.3       1 <0>         0.0000
      8 C8         -3.0270   -2.1796    0.3797 C.3       1 <0>         0.0000
      9 C9          1.0649    0.6361   -1.7621 C.3       1 <0>         0.0000
     10 C10        -1.5270   -2.2533    0.5694 C.3       1 <0>         0.0000
     11 N1          5.1508    2.4723    4.0402 N.pl3     1 <0>         0.0000
     12 O1          6.3155    2.0366    3.8720 O.3       1 <0>         0.0000
     13 O2          4.9224    3.5384    4.6615 O.2       1 <0>         0.0000
     14 O3          1.4463   -1.9247   -0.1105 O.2       1 <0>         0.0000
     15 O4          0.8556   -0.4191    1.9646 O.3       1 <0>         0.0000
     16 O5          0.8996    0.6457   -0.3547 O.3       1 <0>         0.0000
     17 O6         -0.9623   -0.9855    0.2818 O.3       1 <0>         0.0000
     18 P1          0.6399   -0.7644    0.4012 P.3       1 <0>         0.0000
     19 H1          5.2978    0.1746    2.6740 H         1 <0>         0.0000
     20 H2          2.5612    3.1255    4.2258 H         1 <0>         0.0000
     21 H3          3.3977   -1.0996    1.7589 H         1 <0>         0.0000
     22 H4          0.6671    1.8456    3.3076 H         1 <0>         0.0000
     23 H5          0.4390    2.6911   -1.9948 H         1 <0>         0.0000
     24 H6          2.1932    2.4762   -1.7836 H         1 <0>         0.0000
     25 H7          1.4473    2.0744   -3.3254 H         1 <0>         0.0000
     26 H8         -3.4695   -1.4398    1.0526 H         1 <0>         0.0000
     27 H9         -3.2728   -1.9101   -0.6527 H         1 <0>         0.0000
     28 H10        -3.4887   -3.1536    0.5729 H         1 <0>         0.0000
     29 H11         1.9223    0.0041   -2.0120 H         1 <0>         0.0000
     30 H12         0.1644    0.2159   -2.2200 H         1 <0>         0.0000
     31 H13        -1.0907   -2.9950   -0.1065 H         1 <0>         0.0000
     32 H14        -1.2832   -2.5218    1.6016 H         1 <0>         0.0000
@<TRIPOS>BOND
     1    1    3 ar
     2    1    5 ar
     3    2    4 ar
     4    2    5 ar
     5    3    6 ar
     6    4    6 ar
     7    5   11 1
     8    6   15 1
     9    7    9 1
    10    8   10 1
    11    9   16 1
    12   10   17 1
    13   11   12 1
    14   11   13 2
    15   14   18 2
    16   15   18 1
    17   16   18 1
    18   17   18 1
    19    1   19 1
    20    2   20 1
    21    3   21 1
    22    4   22 1
    23    7   23 1
    24    7   24 1
    25    7   25 1
    26    8   26 1
    27    8   27 1
    28    8   28 1
    29    9   29 1
    30    9   30 1
    31   10   31 1
    32   10   32 1
@<TRIPOS>MOLECULE
*****
   32    32     0     0     0
SMALL
NO_CHARGES

@<TRIPOS>ATOM
      1 C1         -0.1305   -3.4373    3.7963 C.ar      1 <0>         0.0000
      2 C2          0.5734   -1.7451    5.3704 C.ar      1 <0>         0.0000
      3 C3          0.1250   -2.5619    2.7409 C.ar      1 <0>         0.0000
      4 C4          0.8290   -0.8696    4.3150 C.ar      1 <0>         0.0000
      5 C5          0.0936   -3.0289    5.1111 C.ar      1 <0>         0.0000
      6 C6          0.6048   -1.2781    3.0002 C.ar      1 <0>         0.0000
      7 C7         -0.1849    0.0697   -2.4016 C.3       1 <0>         0.0000
      8 C8         -3.2760   -0.4393    0.4984 C.3       1 <0>         0.0000
      9 C9          1.0649    0.6361   -1.7621 C.3       1 <0>         0.0000
     10 C10        -1.8528    0.0243    0.7248 C.3       1 <0>         0.0000
     11 N1         -0.1666   -3.9198    6.1857 N.pl3     1 <0>         0.0000
     12 O1         -0.5980   -5.0703    5.9310 O.3       1 <0>         0.0000
     13 O2          0.0415   -3.5321    7.3609 O.2       1 <0>         0.0000
     14 O3          1.4463   -1.9247   -0.1105 O.2       1 <0>         0.0000
     15 O4          0.8556   -0.4191    1.9646 O.3       1 <0>         0.0000
     16 O5          0.8996    0.6457   -0.3547 O.3       1 <0>         0.0000
     17 O6         -0.9623   -0.9855    0.2818 O.3       1 <0>         0.0000
     18 P1          0.6399   -0.7644    0.4012 P.3       1 <0>         0.0000
     19 H1         -0.5039   -4.4353    3.5803 H         1 <0>         0.0000
     20 H2          0.7521   -1.4136    6.3904 H         1 <0>         0.0000
     21 H3         -0.0512   -2.8858    1.7187 H         1 <0>         0.0000
     22 H4          1.2023    0.1293    4.5234 H         1 <0>         0.0000
     23 H5         -0.3658   -0.9547   -2.0645 H         1 <0>         0.0000
     24 H6         -1.0574    0.6829   -2.1532 H         1 <0>         0.0000
     25 H7         -0.0948    0.0718   -3.4929 H         1 <0>         0.0000
     26 H8         -3.4612   -0.6268   -0.5629 H         1 <0>         0.0000
     27 H9         -3.4768   -1.3576    1.0600 H         1 <0>         0.0000
     28 H10        -3.9880    0.3131    0.8537 H         1 <0>         0.0000
     29 H11         1.2400    1.6607   -2.1034 H         1 <0>         0.0000
     30 H12         1.9355    0.0218   -2.0106 H         1 <0>         0.0000
     31 H13        -1.6742    0.2100    1.7881 H         1 <0>         0.0000
     32 H14        -1.6537    0.9414    0.1624 H         1 <0>         0.0000
@<TRIPOS>BOND
     1    1    3 ar
     2    1    5 ar
     3    2    4 ar
     4    2    5 ar
     5    3    6 ar
     6    4    6 ar
     7    5   11 1
     8    6   15 1
     9    7    9 1
    10    8   10 1
    11    9   16 1
    12   10   17 1
    13   11   12 1
    14   11   13 2
    15   14   18 2
    16   15   18 1
    17   16   18 1
    18   17   18 1
    19    1   19 1
    20    2   20 1
    21    3   21 1
    22    4   22 1
    23    7   23 1
    24    7   24 1
    25    7   25 1
    26    8   26 1
    27    8   27 1
    28    8   28 1
    29    9   29 1
    30    9   30 1
    31   10   31 1
    32   10   32 1
@<TRIPOS>MOLECULE
*****
   32    32     0     0     0
SMALL
NO_CHARGES

@<TRIPOS>ATOM
      1 C1         -0.1057   -3.1305    4.2364 C.ar      1 <0>         0.0000
      2 C2         -1.1634   -1.0796    4.9520 C.ar      1 <0>         0.0000
      3 C3          0.4948   -2.4510    3.1766 C.ar      1 <0>         0.0000
      4 C4         -0.5629   -0.4001    3.8922 C.ar      1 <0>         0.0000
      5 C5         -0.9349   -2.4448    5.1241 C.ar      1 <0>         0.0000
      6 C6          0.2663   -1.0858    3.0045 C.ar      1 <0>         0.0000
      7 C7          1.2927    2.0538   -2.2415 C.3       1 <0>         0.0000
      8 C8         -3.2636   -0.3588    0.1832 C.3       1 <0>         0.0000
      9 C9          1.0649    0.6361   -1.7621 C.3       1 <0>         0.0000
     10 C10        -1.8366    0.1297    0.3122 C.3       1 <0>         0.0000
     11 N1         -1.5466   -3.1363    6.2030 N.pl3     1 <0>         0.0000
     12 O1         -1.3282   -4.3643    6.3401 O.3       1 <0>         0.0000
     13 O2         -2.2892   -2.5005    6.9897 O.2       1 <0>         0.0000
     14 O3          1.4463   -1.9247   -0.1105 O.2       1 <0>         0.0000
     15 O4          0.8556   -0.4191    1.9646 O.3       1 <0>         0.0000
     16 O5          0.8996    0.6457   -0.3547 O.3       1 <0>         0.0000
     17 O6         -0.9623   -0.9855    0.2818 O.3       1 <0>         0.0000
     18 P1          0.6399   -0.7644    0.4012 P.3       1 <0>         0.0000
     19 H1          0.0811   -4.1945    4.3594 H         1 <0>         0.0000
     20 H2         -1.8079   -0.5329    5.6361 H         1 <0>         0.0000
     21 H3          1.1400   -2.9905    2.4885 H         1 <0>         0.0000
     22 H4         -0.7450    0.6634    3.7630 H         1 <0>         0.0000
     23 H5          0.4390    2.6911   -1.9948 H         1 <0>         0.0000
     24 H6          2.1932    2.4762   -1.7836 H         1 <0>         0.0000
     25 H7          1.4473    2.0744   -3.3254 H         1 <0>         0.0000
     26 H8         -3.4100   -0.8912   -0.7607 H         1 <0>         0.0000
     27 H9         -3.5184   -1.0292    1.0105 H         1 <0>         0.0000
     28 H10        -3.9645    0.4815    0.2271 H         1 <0>         0.0000
     29 H11         1.9223    0.0041   -2.0120 H         1 <0>         0.0000
     30 H12         0.1644    0.2159   -2.2200 H         1 <0>         0.0000
     31 H13        -1.6970    0.6613    1.2582 H         1 <0>         0.0000
     32 H14        -1.5835    0.7988   -0.5156 H         1 <0>         0.0000
@<TRIPOS>BOND
     1    1    3 ar
     2    1    5 ar
     3    2    4 ar
     4    2    5 ar
     5    3    6 ar
     6    4    6 ar
     7    5   11 1
     8    6   15 1
     9    7    9 1
    10    8   10 1
    11    9   16 1
    12   10   17 1
    13   11   12 1
    14   11   13 2
    15   14   18 2
    16   15   18 1
    17   16   18 1
    18   17   18 1
    19    1   19 1
    20    2   20 1
    21    3   21 1
    22    4   22 1
    23    7   23 1
    24    7   24 1
    25    7   25 1
    26    8   26 1
    27    8   27 1
    28    8   28 1
    29    9   29 1
    30    9   30 1
    31   10   31 1
    32   10   32 1
@<TRIPOS>MOLECULE
*****
   32    32     0     0     0
SMALL
NO_CHARGES

@<TRIPOS>ATOM
      1 C1         -1.6933    2.0271    2.9421 C.ar      1 <0>         0.0000
      2 C2         -0.9953    0.7825    4.8916 C.ar      1 <0>         0.0000
      3 C3         -0.8066    1.2920    2.1553 C.ar      1 <0>         0.0000
      4 C4         -0.1086    0.0474    4.1048 C.ar      1 <0>         0.0000
      5 C5         -1.7876    1.7724    4.3103 C.ar      1 <0>         0.0000
      6 C6         -0.0143    0.3022    2.7366 C.ar      1 <0>         0.0000
      7 C7          2.2086    2.4977   -1.0990 C.3       1 <0>         0.0000
      8 C8         -3.0494   -1.3745   -0.8096 C.3       1 <0>         0.0000
      9 C9          2.2078    1.1900   -0.3364 C.3       1 <0>         0.0000
     10 C10        -1.5563   -1.1996   -0.9873 C.3       1 <0>         0.0000
     11 N1         -2.6900    2.5207    5.1115 N.pl3     1 <0>         0.0000
     12 O1         -3.3937    3.4068    4.5691 O.3       1 <0>         0.0000
     13 O2         -2.7588    2.2757    6.3403 O.2       1 <0>         0.0000
     14 O3          1.4463   -1.9247   -0.1105 O.2       1 <0>         0.0000
     15 O4          0.8556   -0.4191    1.9646 O.3       1 <0>         0.0000
     16 O5          0.8996    0.6457   -0.3547 O.3       1 <0>         0.0000
     17 O6         -0.9623   -0.9855    0.2818 O.3       1 <0>         0.0000
     18 P1          0.6399   -0.7644    0.4012 P.3       1 <0>         0.0000
     19 H1         -2.3054    2.7956    2.4763 H         1 <0>         0.0000
     20 H2         -1.0582    0.5739    5.9568 H         1 <0>         0.0000
     21 H3         -0.7379    1.4948    1.0900 H         1 <0>         0.0000
     22 H4          0.5063   -0.7222    4.5635 H         1 <0>         0.0000
     23 H5          1.9097    2.3428   -2.1395 H         1 <0>         0.0000
     24 H6          1.5219    3.2145   -0.6369 H         1 <0>         0.0000
     25 H7          3.2040    2.9539   -1.0817 H         1 <0>         0.0000
     26 H8         -3.2684   -2.2356   -0.1721 H         1 <0>         0.0000
     27 H9         -3.4920   -0.4798   -0.3596 H         1 <0>         0.0000
     28 H10        -3.5390   -1.5187   -1.7785 H         1 <0>         0.0000
     29 H11         2.5076    1.3519    0.7033 H         1 <0>         0.0000
     30 H12         2.8938    0.4747   -0.7999 H         1 <0>         0.0000
     31 H13        -1.3442   -0.3369   -1.6258 H         1 <0>         0.0000
     32 H14        -1.1155   -2.0947   -1.4362 H         1 <0>         0.0000
@<TRIPOS>BOND
     1    1    3 ar
     2    1    5 ar
     3    2    4 ar
     4    2    5 ar
     5    3    6 ar
     6    4    6 ar
     7    5   11 1
     8    6   15 1
     9    7    9 1
    10    8   10 1
    11    9   16 1
    12   10   17 1
    13   11   12 1
    14   11   13 2
    15   14   18 2
    16   15   18 1
    17   16   18 1
    18   17   18 1
    19    1   19 1
    20    2   20 1
    21    3   21 1
    22    4   22 1
    23    7   23 1
    24    7   24 1
    25    7   25 1
    26    8   26 1
    27    8   27 1
    28    8   28 1
    29    9   29 1
    30    9   30 1
    31   10   31 1
    32   10   32 1
@<TRIPOS>MOLECULE
*****
   32    32     0     0     0
SMALL
NO_CHARGES

@<TRIPOS>ATOM
      1 C1          0.4869   -3.5298    3.8684 C.ar      1 <0>         0.0000
      2 C2          1.8850   -1.9985    5.1084 C.ar      1 <0>         0.0000
      3 C3          0.3537   -2.5847    2.8513 C.ar      1 <0>         0.0000
      4 C4          1.7519   -1.0533    4.0912 C.ar      1 <0>         0.0000
      5 C5          1.2525   -3.2367    4.9970 C.ar      1 <0>         0.0000
      6 C6          0.9862   -1.3465    2.9627 C.ar      1 <0>         0.0000
      7 C7          2.2086    2.4977   -1.0990 C.3       1 <0>         0.0000
      8 C8         -1.1543   -0.7830   -2.0890 C.3       1 <0>         0.0000
      9 C9          2.2078    1.1900   -0.3364 C.3       1 <0>         0.0000
     10 C10        -1.5090   -1.6064   -0.8692 C.3       1 <0>         0.0000
     11 N1          1.3881   -4.1986    6.0327 N.pl3     1 <0>         0.0000
     12 O1          0.8110   -5.3064    5.9132 O.3       1 <0>         0.0000
     13 O2          2.0811   -3.9144    7.0395 O.2       1 <0>         0.0000
     14 O3          1.4463   -1.9247   -0.1105 O.2       1 <0>         0.0000
     15 O4          0.8556   -0.4191    1.9646 O.3       1 <0>         0.0000
     16 O5          0.8996    0.6457   -0.3547 O.3       1 <0>         0.0000
     17 O6         -0.9623   -0.9855    0.2818 O.3       1 <0>         0.0000
     18 P1          0.6399   -0.7644    0.4012 P.3       1 <0>         0.0000
     19 H1         -0.0110   -4.4912    3.7689 H         1 <0>         0.0000
     20 H2          2.4844   -1.7567    5.9827 H         1 <0>         0.0000
     21 H3         -0.2437   -2.8189    1.9744 H         1 <0>         0.0000
     22 H4          2.2467   -0.0904    4.1839 H         1 <0>         0.0000
     23 H5          1.9097    2.3428   -2.1395 H         1 <0>         0.0000
     24 H6          1.5219    3.2145   -0.6369 H         1 <0>         0.0000
     25 H7          3.2040    2.9539   -1.0817 H         1 <0>         0.0000
     26 H8         -1.5640    0.2279   -2.0101 H         1 <0>         0.0000
     27 H9         -0.0678   -0.7160   -2.2070 H         1 <0>         0.0000
     28 H10        -1.5447   -1.2523   -2.9981 H         1 <0>         0.0000
     29 H11         2.5076    1.3519    0.7033 H         1 <0>         0.0000
     30 H12         2.8938    0.4747   -0.7999 H         1 <0>         0.0000
     31 H13        -1.0963   -2.6161   -0.9545 H         1 <0>         0.0000
     32 H14        -2.5948   -1.6716   -0.7524 H         1 <0>         0.0000
@<TRIPOS>BOND
     1    1    3 ar
     2    1    5 ar
     3    2    4 ar
     4    2    5 ar
     5    3    6 ar
     6    4    6 ar
     7    5   11 1
     8    6   15 1
     9    7    9 1
    10    8   10 1
    11    9   16 1
    12   10   17 1
    13   11   12 1
    14   11   13 2
    15   14   18 2
    16   15   18 1
    17   16   18 1
    18   17   18 1
    19    1   19 1
    20    2   20 1
    21    3   21 1
    22    4   22 1
    23    7   23 1
    24    7   24 1
    25    7   25 1
    26    8   26 1
    27    8   27 1
    28    8   28 1
    29    9   29 1
    30    9   30 1
    31   10   31 1
    32   10   32 1
@<TRIPOS>MOLECULE
*****
   32    32     0     0     0
SMALL
NO_CHARGES

@<TRIPOS>ATOM
      1 C1          4.3497   -0.5877    3.0599 C.ar      1 <0>         0.0000
      2 C2          3.4012    1.5255    3.7466 C.ar      1 <0>         0.0000
      3 C3          3.1326   -0.9456    2.4801 C.ar      1 <0>         0.0000
      4 C4          2.1841    1.1676    3.1668 C.ar      1 <0>         0.0000
      5 C5          4.4840    0.6478    3.6932 C.ar      1 <0>         0.0000
      6 C6          2.0498   -0.0680    2.5336 C.ar      1 <0>         0.0000
      7 C7          2.2245    2.3317   -1.4032 C.3       1 <0>         0.0000
      8 C8         -3.0494   -1.3745   -0.8096 C.3       1 <0>         0.0000
      9 C9          2.2277    0.9829   -0.7159 C.3       1 <0>         0.0000
     10 C10        -1.5563   -1.1996   -0.9873 C.3       1 <0>         0.0000
     11 N1          5.7228    1.0124    4.2837 N.pl3     1 <0>         0.0000
     12 O1          6.6845    0.2085    4.2248 O.3       1 <0>         0.0000
     13 O2          5.8220    2.1284    4.8488 O.2       1 <0>         0.0000
     14 O3          1.4463   -1.9247   -0.1105 O.2       1 <0>         0.0000
     15 O4          0.8556   -0.4191    1.9646 O.3       1 <0>         0.0000
     16 O5          0.8996    0.6457   -0.3547 O.3       1 <0>         0.0000
     17 O6         -0.9623   -0.9855    0.2818 O.3       1 <0>         0.0000
     18 P1          0.6399   -0.7644    0.4012 P.3       1 <0>         0.0000
     19 H1          5.1859   -1.2810    3.0109 H         1 <0>         0.0000
     20 H2          3.4919    2.4914    4.2375 H         1 <0>         0.0000
     21 H3          3.0342   -1.9094    1.9879 H         1 <0>         0.0000
     22 H4          1.3441    1.8554    3.2120 H         1 <0>         0.0000
     23 H5          1.6123    2.3067   -2.3089 H         1 <0>         0.0000
     24 H6          1.8340    3.1051   -0.7337 H         1 <0>         0.0000
     25 H7          3.2431    2.6294   -1.6734 H         1 <0>         0.0000
     26 H8         -3.2684   -2.2356   -0.1721 H         1 <0>         0.0000
     27 H9         -3.4920   -0.4798   -0.3596 H         1 <0>         0.0000
     28 H10        -3.5390   -1.5187   -1.7785 H         1 <0>         0.0000
     29 H11         2.8418    1.0147    0.1891 H         1 <0>         0.0000
     30 H12         2.6174    0.2112   -1.3864 H         1 <0>         0.0000
     31 H13        -1.3442   -0.3369   -1.6258 H         1 <0>         0.0000
     32 H14        -1.1155   -2.0947   -1.4362 H         1 <0>         0.0000
@<TRIPOS>BOND
     1    1    3 ar
     2    1    5 ar
     3    2    4 ar
     4    2    5 ar
     5    3    6 ar
     6    4    6 ar
     7    5   11 1
     8    6   15 1
     9    7    9 1
    10    8   10 1
    11    9   16 1
    12   10   17 1
    13   11   12 1
    14   11   13 2
    15   14   18 2
    16   15   18 1
    17   16   18 1
    18   17   18 1
    19    1   19 1
    20    2   20 1
    21    3   21 1
    22    4   22 1
    23    7   23 1
    24    7   24 1
    25    7   25 1
    26    8   26 1
    27    8   27 1
    28    8   28 1
    29    9   29 1
    30    9   30 1
    31   10   31 1
    32   10   32 1
@<TRIPOS>MOLECULE
*****
   32    32     0     0     0
SMALL
NO_CHARGES

@<TRIPOS>ATOM
      1 C1         -0.7895    2.7840    2.6503 C.ar      1 <0>         0.0000
      2 C2          0.9871    2.4427    4.2516 C.ar      1 <0>         0.0000
      3 C3         -0.4845    1.5618    2.0512 C.ar      1 <0>         0.0000
      4 C4          1.2922    1.2205    3.6525 C.ar      1 <0>         0.0000
      5 C5         -0.0537    3.2244    3.7504 C.ar      1 <0>         0.0000
      6 C6          0.5564    0.7801    2.5524 C.ar      1 <0>         0.0000
      7 C7          0.9532    2.1233   -2.2286 C.3       1 <0>         0.0000
      8 C8         -3.0680   -2.0405    0.6713 C.3       1 <0>         0.0000
      9 C9          0.6411    0.7228   -1.7459 C.3       1 <0>         0.0000
     10 C10        -1.5805   -2.0713    0.9510 C.3       1 <0>         0.0000
     11 N1         -0.3639    4.4686    4.3604 N.pl3     1 <0>         0.0000
     12 O1         -1.3040    5.1568    3.8942 O.3       1 <0>         0.0000
     13 O2          0.3108    4.8463    5.3487 O.2       1 <0>         0.0000
     14 O3          1.4463   -1.9247   -0.1105 O.2       1 <0>         0.0000
     15 O4          0.8556   -0.4191    1.9646 O.3       1 <0>         0.0000
     16 O5          0.8996    0.6457   -0.3547 O.3       1 <0>         0.0000
     17 O6         -0.9623   -0.9855    0.2818 O.3       1 <0>         0.0000
     18 P1          0.6399   -0.7644    0.4012 P.3       1 <0>         0.0000
     19 H1         -1.6035    3.3834    2.2500 H         1 <0>         0.0000
     20 H2          1.5691    2.7741    5.1081 H         1 <0>         0.0000
     21 H3         -1.0614    1.2239    1.1947 H         1 <0>         0.0000
     22 H4          2.1044    0.6161    4.0472 H         1 <0>         0.0000
     23 H5          0.3289    2.8607   -1.7163 H         1 <0>         0.0000
     24 H6          2.0058    2.3671   -2.0514 H         1 <0>         0.0000
     25 H7          0.7845    2.2061   -3.3074 H         1 <0>         0.0000
     26 H8         -3.5136   -1.1092    1.0317 H         1 <0>         0.0000
     27 H9         -3.2608   -2.1323   -0.4027 H         1 <0>         0.0000
     28 H10        -3.5696   -2.8836    1.1579 H         1 <0>         0.0000
     29 H11         1.2688   -0.0097   -2.2621 H         1 <0>         0.0000
     30 H12        -0.4111    0.4812   -1.9229 H         1 <0>         0.0000
     31 H13        -1.1411   -3.0052    0.5880 H         1 <0>         0.0000
     32 H14        -1.3896   -1.9787    2.0243 H         1 <0>         0.0000
@<TRIPOS>BOND
     1    1    3 ar
     2    1    5 ar
     3    2    4 ar
     4    2    5 ar
     5    3    6 ar
     6    4    6 ar
     7    5   11 1
     8    6   15 1
     9    7    9 1
    10    8   10 1
    11    9   16 1
    12   10   17 1
    13   11   12 1
    14   11   13 2
    15   14   18 2
    16   15   18 1
    17   16   18 1
    18   17   18 1
    19    1   19 1
    20    2   20 1
    21    3   21 1
    22    4   22 1
    23    7   23 1
    24    7   24 1
    25    7   25 1
    26    8   26 1
    27    8   27 1
    28    8   28 1
    29    9   29 1
    30    9   30 1
    31   10   31 1
    32   10   32 1
@<TRIPOS>MOLECULE
*****
   32    32     0     0     0
SMALL
NO_CHARGES

@<TRIPOS>ATOM
      1 C1          4.4618   -0.2009    2.5849 C.ar      1 <0>         0.0000
      2 C2          3.3343   -0.7846    4.6404 C.ar      1 <0>         0.0000
      3 C3          3.2356   -0.1713    1.9207 C.ar      1 <0>         0.0000
      4 C4          2.1081   -0.7549    3.9762 C.ar      1 <0>         0.0000
      5 C5          4.5112   -0.5076    3.9447 C.ar      1 <0>         0.0000
      6 C6          2.0588   -0.4483    2.6163 C.ar      1 <0>         0.0000
      7 C7          0.9532    2.1233   -2.2286 C.3       1 <0>         0.0000
      8 C8         -1.2055   -2.6228    2.0018 C.3       1 <0>         0.0000
      9 C9          0.6411    0.7228   -1.7459 C.3       1 <0>         0.0000
     10 C10        -1.5270   -2.2533    0.5694 C.3       1 <0>         0.0000
     11 N1          5.7593   -0.5380    4.6211 N.pl3     1 <0>         0.0000
     12 O1          6.8063   -0.2859    3.9771 O.3       1 <0>         0.0000
     13 O2          5.7813   -0.8165    5.8445 O.2       1 <0>         0.0000
     14 O3          1.4463   -1.9247   -0.1105 O.2       1 <0>         0.0000
     15 O4          0.8556   -0.4191    1.9646 O.3       1 <0>         0.0000
     16 O5          0.8996    0.6457   -0.3547 O.3       1 <0>         0.0000
     17 O6         -0.9623   -0.9855    0.2818 O.3       1 <0>         0.0000
     18 P1          0.6399   -0.7644    0.4012 P.3       1 <0>         0.0000
     19 H1          5.3716    0.0174    2.0309 H         1 <0>         0.0000
     20 H2          3.3584   -1.0256    5.7003 H         1 <0>         0.0000
     21 H3          3.2035    0.0686    0.8614 H         1 <0>         0.0000
     22 H4          1.1948   -0.9720    4.5234 H         1 <0>         0.0000
     23 H5          0.3289    2.8607   -1.7163 H         1 <0>         0.0000
     24 H6          2.0058    2.3671   -2.0514 H         1 <0>         0.0000
     25 H7          0.7845    2.2061   -3.3074 H         1 <0>         0.0000
     26 H8         -0.1245   -2.6789    2.1571 H         1 <0>         0.0000
     27 H9         -1.6244   -1.8850    2.6940 H         1 <0>         0.0000
     28 H10        -1.6501   -3.5897    2.2599 H         1 <0>         0.0000
     29 H11         1.2688   -0.0097   -2.2621 H         1 <0>         0.0000
     30 H12        -0.4111    0.4812   -1.9229 H         1 <0>         0.0000
     31 H13        -2.6095   -2.1989    0.4208 H         1 <0>         0.0000
     32 H14        -1.1071   -2.9910   -0.1209 H         1 <0>         0.0000
@<TRIPOS>BOND
     1    1    3 ar
     2    1    5 ar
     3    2    4 ar
     4    2    5 ar
     5    3    6 ar
     6    4    6 ar
     7    5   11 1
     8    6   15 1
     9    7    9 1
    10    8   10 1
    11    9   16 1
    12   10   17 1
    13   11   12 1
    14   11   13 2
    15   14   18 2
    16   15   18 1
    17   16   18 1
    18   17   18 1
    19    1   19 1
    20    2   20 1
    21    3   21 1
    22    4   22 1
    23    7   23 1
    24    7   24 1
    25    7   25 1
    26    8   26 1
    27    8   27 1
    28    8   28 1
    29    9   29 1
    30    9   30 1
    31   10   31 1
    32   10   32 1
@<TRIPOS>MOLECULE
*****
   32    32     0     0     0
SMALL
NO_CHARGES

@<TRIPOS>ATOM
      1 C1          2.1644   -3.2146    3.9417 C.ar      1 <0>         0.0000
      2 C2          0.2076   -2.3134    5.0353 C.ar      1 <0>         0.0000
      3 C3          2.0312   -2.2696    2.9245 C.ar      1 <0>         0.0000
      4 C4          0.0744   -1.3684    4.0181 C.ar      1 <0>         0.0000
      5 C5          1.2526   -3.2366    4.9971 C.ar      1 <0>         0.0000
      6 C6          0.9862   -1.3465    2.9627 C.ar      1 <0>         0.0000
      7 C7          2.2086    2.4977   -1.0990 C.3       1 <0>         0.0000
      8 C8         -3.0270   -2.1796    0.3797 C.3       1 <0>         0.0000
      9 C9          2.2078    1.1900   -0.3364 C.3       1 <0>         0.0000
     10 C10        -1.5270   -2.2533    0.5694 C.3       1 <0>         0.0000
     11 N1          1.3878   -4.1986    6.0327 N.pl3     1 <0>         0.0000
     12 O1          2.3347   -5.0203    5.9796 O.3       1 <0>         0.0000
     13 O2          0.5564   -4.2012    6.9726 O.2       1 <0>         0.0000
     14 O3          1.4463   -1.9247   -0.1105 O.2       1 <0>         0.0000
     15 O4          0.8556   -0.4191    1.9646 O.3       1 <0>         0.0000
     16 O5          0.8996    0.6457   -0.3547 O.3       1 <0>         0.0000
     17 O6         -0.9623   -0.9855    0.2818 O.3       1 <0>         0.0000
     18 P1          0.6399   -0.7644    0.4012 P.3       1 <0>         0.0000
     19 H1          2.9837   -3.9282    3.9001 H         1 <0>         0.0000
     20 H2         -0.5104   -2.3196    5.8517 H         1 <0>         0.0000
     21 H3          2.7448   -2.2572    2.1052 H         1 <0>         0.0000
     22 H4         -0.7419   -0.6521    4.0531 H         1 <0>         0.0000
     23 H5          1.9097    2.3428   -2.1395 H         1 <0>         0.0000
     24 H6          1.5219    3.2145   -0.6369 H         1 <0>         0.0000
     25 H7          3.2040    2.9539   -1.0817 H         1 <0>         0.0000
     26 H8         -3.4695   -1.4398    1.0526 H         1 <0>         0.0000
     27 H9         -3.2728   -1.9101   -0.6527 H         1 <0>         0.0000
     28 H10        -3.4887   -3.1536    0.5729 H         1 <0>         0.0000
     29 H11         2.5076    1.3519    0.7033 H         1 <0>         0.0000
     30 H12         2.8938    0.4747   -0.7999 H         1 <0>         0.0000
     31 H13        -1.0907   -2.9950   -0.1065 H         1 <0>         0.0000
     32 H14        -1.2832   -2.5218    1.6016 H         1 <0>         0.0000
@<TRIPOS>BOND
     1    1    3 ar
     2    1    5 ar
     3    2    4 ar
     4    2    5 ar
     5    3    6 ar
     6    4    6 ar
     7    5   11 1
     8    6   15 1
     9    7    9 1
    10    8   10 1
    11    9   16 1
    12   10   17 1
    13   11   12 1
    14   11   13 2
    15   14   18 2
    16   15   18 1
    17   16   18 1
    18   17   18 1
    19    1   19 1
    20    2   20 1
    21    3   21 1
    22    4   22 1
    23    7   23 1
    24    7   24 1
    25    7   25 1
    26    8   26 1
    27    8   27 1
    28    8   28 1
    29    9   29 1
    30    9   30 1
    31   10   31 1
    32   10   32 1
@<TRIPOS>MOLECULE
*****
   32    32     0     0     0
SMALL
NO_CHARGES

@<TRIPOS>ATOM
      1 C1         -0.7895    2.7840    2.6503 C.ar      1 <0>         0.0000
      2 C2          0.9871    2.4427    4.2516 C.ar      1 <0>         0.0000
      3 C3         -0.4845    1.5618    2.0512 C.ar      1 <0>         0.0000
      4 C4          1.2922    1.2205    3.6525 C.ar      1 <0>         0.0000
      5 C5         -0.0537    3.2244    3.7504 C.ar      1 <0>         0.0000
      6 C6          0.5564    0.7801    2.5524 C.ar      1 <0>         0.0000
      7 C7          2.2245    2.3317   -1.4032 C.3       1 <0>         0.0000
      8 C8         -3.0494   -1.3745   -0.8096 C.3       1 <0>         0.0000
      9 C9          2.2277    0.9829   -0.7159 C.3       1 <0>         0.0000
     10 C10        -1.5563   -1.1996   -0.9873 C.3       1 <0>         0.0000
     11 N1         -0.3639    4.4686    4.3604 N.pl3     1 <0>         0.0000
     12 O1         -1.3040    5.1568    3.8942 O.3       1 <0>         0.0000
     13 O2          0.3108    4.8463    5.3487 O.2       1 <0>         0.0000
     14 O3          1.4463   -1.9247   -0.1105 O.2       1 <0>         0.0000
     15 O4          0.8556   -0.4191    1.9646 O.3       1 <0>         0.0000
     16 O5          0.8996    0.6457   -0.3547 O.3       1 <0>         0.0000
     17 O6         -0.9623   -0.9855    0.2818 O.3       1 <0>         0.0000
     18 P1          0.6399   -0.7644    0.4012 P.3       1 <0>         0.0000
     19 H1         -1.6035    3.3834    2.2500 H         1 <0>         0.0000
     20 H2          1.5691    2.7741    5.1081 H         1 <0>         0.0000
     21 H3         -1.0614    1.2239    1.1947 H         1 <0>         0.0000
     22 H4          2.1044    0.6161    4.0472 H         1 <0>         0.0000
     23 H5          1.6123    2.3067   -2.3089 H         1 <0>         0.0000
     24 H6          1.8340    3.1051   -0.7337 H         1 <0>         0.0000
     25 H7          3.2431    2.6294   -1.6734 H         1 <0>         0.0000
     26 H8         -3.2684   -2.2356   -0.1721 H         1 <0>         0.0000
     27 H9         -3.4920   -0.4798   -0.3596 H         1 <0>         0.0000
     28 H10        -3.5390   -1.5187   -1.7785 H         1 <0>         0.0000
     29 H11         2.8418    1.0147    0.1891 H         1 <0>         0.0000
     30 H12         2.6174    0.2112   -1.3864 H         1 <0>         0.0000
     31 H13        -1.3442   -0.3369   -1.6258 H         1 <0>         0.0000
     32 H14        -1.1155   -2.0947   -1.4362 H         1 <0>         0.0000
@<TRIPOS>BOND
     1    1    3 ar
     2    1    5 ar
     3    2    4 ar
     4    2    5 ar
     5    3    6 ar
     6    4    6 ar
     7    5   11 1
     8    6   15 1
     9    7    9 1
    10    8   10 1
    11    9   16 1
    12   10   17 1
    13   11   12 1
    14   11   13 2
    15   14   18 2
    16   15   18 1
    17   16   18 1
    18   17   18 1
    19    1   19 1
    20    2   20 1
    21    3   21 1
    22    4   22 1
    23    7   23 1
    24    7   24 1
    25    7   25 1
    26    8   26 1
    27    8   27 1
    28    8   28 1
    29    9   29 1
    30    9   30 1
    31   10   31 1
    32   10   32 1
@<TRIPOS>MOLECULE
*****
   32    32     0     0     0
SMALL
NO_CHARGES

@<TRIPOS>ATOM
      1 C1          2.1644   -3.2146    3.9417 C.ar      1 <0>         0.0000
      2 C2          0.2076   -2.3134    5.0353 C.ar      1 <0>         0.0000
      3 C3          2.0312   -2.2696    2.9245 C.ar      1 <0>         0.0000
      4 C4          0.0744   -1.3684    4.0181 C.ar      1 <0>         0.0000
      5 C5          1.2526   -3.2366    4.9971 C.ar      1 <0>         0.0000
      6 C6          0.9862   -1.3465    2.9627 C.ar      1 <0>         0.0000
      7 C7          0.9532    2.1233   -2.2286 C.3       1 <0>         0.0000
      8 C8         -3.0270   -2.1796    0.3797 C.3       1 <0>         0.0000
      9 C9          0.6411    0.7228   -1.7459 C.3       1 <0>         0.0000
     10 C10        -1.5270   -2.2533    0.5694 C.3       1 <0>         0.0000
     11 N1          1.3878   -4.1986    6.0327 N.pl3     1 <0>         0.0000
     12 O1          2.3347   -5.0203    5.9796 O.3       1 <0>         0.0000
     13 O2          0.5564   -4.2012    6.9726 O.2       1 <0>         0.0000
     14 O3          1.4463   -1.9247   -0.1105 O.2       1 <0>         0.0000
     15 O4          0.8556   -0.4191    1.9646 O.3       1 <0>         0.0000
     16 O5          0.8996    0.6457   -0.3547 O.3       1 <0>         0.0000
     17 O6         -0.9623   -0.9855    0.2818 O.3       1 <0>         0.0000
     18 P1          0.6399   -0.7644    0.4012 P.3       1 <0>         0.0000
     19 H1          2.9837   -3.9282    3.9001 H         1 <0>         0.0000
     20 H2         -0.5104   -2.3196    5.8517 H         1 <0>         0.0000
     21 H3          2.7448   -2.2572    2.1052 H         1 <0>         0.0000
     22 H4         -0.7419   -0.6521    4.0531 H         1 <0>         0.0000
     23 H5          0.3289    2.8607   -1.7163 H         1 <0>         0.0000
     24 H6          2.0058    2.3671   -2.0514 H         1 <0>         0.0000
     25 H7          0.7845    2.2061   -3.3074 H         1 <0>         0.0000
     26 H8         -3.4695   -1.4398    1.0526 H         1 <0>         0.0000
     27 H9         -3.2728   -1.9101   -0.6527 H         1 <0>         0.0000
     28 H10        -3.4887   -3.1536    0.5729 H         1 <0>         0.0000
     29 H11         1.2688   -0.0097   -2.2621 H         1 <0>         0.0000
     30 H12        -0.4111    0.4812   -1.9229 H         1 <0>         0.0000
     31 H13        -1.0907   -2.9950   -0.1065 H         1 <0>         0.0000
     32 H14        -1.2832   -2.5218    1.6016 H         1 <0>         0.0000
@<TRIPOS>BOND
     1    1    3 ar
     2    1    5 ar
     3    2    4 ar
     4    2    5 ar
     5    3    6 ar
     6    4    6 ar
     7    5   11 1
     8    6   15 1
     9    7    9 1
    10    8   10 1
    11    9   16 1
    12   10   17 1
    13   11   12 1
    14   11   13 2
    15   14   18 2
    16   15   18 1
    17   16   18 1
    18   17   18 1
    19    1   19 1
    20    2   20 1
    21    3   21 1
    22    4   22 1
    23    7   23 1
    24    7   24 1
    25    7   25 1
    26    8   26 1
    27    8   27 1
    28    8   28 1
    29    9   29 1
    30    9   30 1
    31   10   31 1
    32   10   32 1
@<TRIPOS>MOLECULE
*****
   32    32     0     0     0
SMALL
NO_CHARGES

@<TRIPOS>ATOM
      1 C1         -1.6933    2.0271    2.9421 C.ar      1 <0>         0.0000
      2 C2         -0.9953    0.7825    4.8916 C.ar      1 <0>         0.0000
      3 C3         -0.8066    1.2920    2.1553 C.ar      1 <0>         0.0000
      4 C4         -0.1086    0.0474    4.1048 C.ar      1 <0>         0.0000
      5 C5         -1.7876    1.7724    4.3103 C.ar      1 <0>         0.0000
      6 C6         -0.0143    0.3022    2.7366 C.ar      1 <0>         0.0000
      7 C7          0.9532    2.1233   -2.2286 C.3       1 <0>         0.0000
      8 C8         -3.0270   -2.1796    0.3797 C.3       1 <0>         0.0000
      9 C9          0.6411    0.7228   -1.7459 C.3       1 <0>         0.0000
     10 C10        -1.5270   -2.2533    0.5694 C.3       1 <0>         0.0000
     11 N1         -2.6900    2.5207    5.1115 N.pl3     1 <0>         0.0000
     12 O1         -3.3937    3.4068    4.5691 O.3       1 <0>         0.0000
     13 O2         -2.7588    2.2757    6.3403 O.2       1 <0>         0.0000
     14 O3          1.4463   -1.9247   -0.1105 O.2       1 <0>         0.0000
     15 O4          0.8556   -0.4191    1.9646 O.3       1 <0>         0.0000
     16 O5          0.8996    0.6457   -0.3547 O.3       1 <0>         0.0000
     17 O6         -0.9623   -0.9855    0.2818 O.3       1 <0>         0.0000
     18 P1          0.6399   -0.7644    0.4012 P.3       1 <0>         0.0000
     19 H1         -2.3054    2.7956    2.4763 H         1 <0>         0.0000
     20 H2         -1.0582    0.5739    5.9568 H         1 <0>         0.0000
     21 H3         -0.7379    1.4948    1.0900 H         1 <0>         0.0000
     22 H4          0.5063   -0.7222    4.5635 H         1 <0>         0.0000
     23 H5          0.3289    2.8607   -1.7163 H         1 <0>         0.0000
     24 H6          2.0058    2.3671   -2.0514 H         1 <0>         0.0000
     25 H7          0.7845    2.2061   -3.3074 H         1 <0>         0.0000
     26 H8         -3.4695   -1.4398    1.0526 H         1 <0>         0.0000
     27 H9         -3.2728   -1.9101   -0.6527 H         1 <0>         0.0000
     28 H10        -3.4887   -3.1536    0.5729 H         1 <0>         0.0000
     29 H11         1.2688   -0.0097   -2.2621 H         1 <0>         0.0000
     30 H12        -0.4111    0.4812   -1.9229 H         1 <0>         0.0000
     31 H13        -1.0907   -2.9950   -0.1065 H         1 <0>         0.0000
     32 H14        -1.2832   -2.5218    1.6016 H         1 <0>         0.0000
@<TRIPOS>BOND
     1    1    3 ar
     2    1    5 ar
     3    2    4 ar
     4    2    5 ar
     5    3    6 ar
     6    4    6 ar
     7    5   11 1
     8    6   15 1
     9    7    9 1
    10    8   10 1
    11    9   16 1
    12   10   17 1
    13   11   12 1
    14   11   13 2
    15   14   18 2
    16   15   18 1
    17   16   18 1
    18   17   18 1
    19    1   19 1
    20    2   20 1
    21    3   21 1
    22    4   22 1
    23    7   23 1
    24    7   24 1
    25    7   25 1
    26    8   26 1
    27    8   27 1
    28    8   28 1
    29    9   29 1
    30    9   30 1
    31   10   31 1
    32   10   32 1
@<TRIPOS>MOLECULE
*****
   32    32     0     0     0
SMALL
NO_CHARGES

@<TRIPOS>ATOM
      1 C1         -1.6335    1.3847    3.9613 C.ar      1 <0>         0.0000
      2 C2          0.1644    2.8905    3.3808 C.ar      1 <0>         0.0000
      3 C3         -0.9926    0.3543    3.2735 C.ar      1 <0>         0.0000
      4 C4          0.8054    1.8601    2.6930 C.ar      1 <0>         0.0000
      5 C5         -1.0550    2.6529    4.0149 C.ar      1 <0>         0.0000
      6 C6          0.2268    0.5920    2.6394 C.ar      1 <0>         0.0000
      7 C7          2.2245    2.3317   -1.4032 C.3       1 <0>         0.0000
      8 C8         -3.0494   -1.3745   -0.8096 C.3       1 <0>         0.0000
      9 C9          2.2277    0.9829   -0.7159 C.3       1 <0>         0.0000
     10 C10        -1.5563   -1.1996   -0.9873 C.3       1 <0>         0.0000
     11 N1         -1.7073    3.7021    4.7149 N.pl3     1 <0>         0.0000
     12 O1         -2.8036    3.4676    5.2785 O.3       1 <0>         0.0000
     13 O2         -1.1697    4.8355    4.7504 O.2       1 <0>         0.0000
     14 O3          1.4463   -1.9247   -0.1105 O.2       1 <0>         0.0000
     15 O4          0.8556   -0.4191    1.9646 O.3       1 <0>         0.0000
     16 O5          0.8996    0.6457   -0.3547 O.3       1 <0>         0.0000
     17 O6         -0.9623   -0.9855    0.2818 O.3       1 <0>         0.0000
     18 P1          0.6399   -0.7644    0.4012 P.3       1 <0>         0.0000
     19 H1         -2.5834    1.1860    4.4516 H         1 <0>         0.0000
     20 H2          0.6263    3.8743    3.4141 H         1 <0>         0.0000
     21 H3         -1.4480   -0.6315    3.2355 H         1 <0>         0.0000
     22 H4          1.7549    2.0515    2.2006 H         1 <0>         0.0000
     23 H5          1.6123    2.3067   -2.3089 H         1 <0>         0.0000
     24 H6          1.8340    3.1051   -0.7337 H         1 <0>         0.0000
     25 H7          3.2431    2.6294   -1.6734 H         1 <0>         0.0000
     26 H8         -3.2684   -2.2356   -0.1721 H         1 <0>         0.0000
     27 H9         -3.4920   -0.4798   -0.3596 H         1 <0>         0.0000
     28 H10        -3.5390   -1.5187   -1.7785 H         1 <0>         0.0000
     29 H11         2.8418    1.0147    0.1891 H         1 <0>         0.0000
     30 H12         2.6174    0.2112   -1.3864 H         1 <0>         0.0000
     31 H13        -1.3442   -0.3369   -1.6258 H         1 <0>         0.0000
     32 H14        -1.1155   -2.0947   -1.4362 H         1 <0>         0.0000
@<TRIPOS>BOND
     1    1    3 ar
     2    1    5 ar
     3    2    4 ar
     4    2    5 ar
     5    3    6 ar
     6    4    6 ar
     7    5   11 1
     8    6   15 1
     9    7    9 1
    10    8   10 1
    11    9   16 1
    12   10   17 1
    13   11   12 1
    14   11   13 2
    15   14   18 2
    16   15   18 1
    17   16   18 1
    18   17   18 1
    19    1   19 1
    20    2   20 1
    21    3   21 1
    22    4   22 1
    23    7   23 1
    24    7   24 1
    25    7   25 1
    26    8   26 1
    27    8   27 1
    28    8   28 1
    29    9   29 1
    30    9   30 1
    31   10   31 1
    32   10   32 1
@<TRIPOS>MOLECULE
*****
   32    32     0     0     0
SMALL
NO_CHARGES

@<TRIPOS>ATOM
      1 C1          4.4618   -0.2009    2.5849 C.ar      1 <0>         0.0000
      2 C2          3.3343   -0.7846    4.6404 C.ar      1 <0>         0.0000
      3 C3          3.2356   -0.1713    1.9207 C.ar      1 <0>         0.0000
      4 C4          2.1081   -0.7549    3.9762 C.ar      1 <0>         0.0000
      5 C5          4.5112   -0.5076    3.9447 C.ar      1 <0>         0.0000
      6 C6          2.0588   -0.4483    2.6163 C.ar      1 <0>         0.0000
      7 C7         -0.1849    0.0697   -2.4016 C.3       1 <0>         0.0000
      8 C8         -3.0680   -2.0405    0.6713 C.3       1 <0>         0.0000
      9 C9          1.0649    0.6361   -1.7621 C.3       1 <0>         0.0000
     10 C10        -1.5805   -2.0713    0.9510 C.3       1 <0>         0.0000
     11 N1          5.7593   -0.5380    4.6211 N.pl3     1 <0>         0.0000
     12 O1          6.8063   -0.2859    3.9771 O.3       1 <0>         0.0000
     13 O2          5.7813   -0.8165    5.8445 O.2       1 <0>         0.0000
     14 O3          1.4463   -1.9247   -0.1105 O.2       1 <0>         0.0000
     15 O4          0.8556   -0.4191    1.9646 O.3       1 <0>         0.0000
     16 O5          0.8996    0.6457   -0.3547 O.3       1 <0>         0.0000
     17 O6         -0.9623   -0.9855    0.2818 O.3       1 <0>         0.0000
     18 P1          0.6399   -0.7644    0.4012 P.3       1 <0>         0.0000
     19 H1          5.3716    0.0174    2.0309 H         1 <0>         0.0000
     20 H2          3.3584   -1.0256    5.7003 H         1 <0>         0.0000
     21 H3          3.2035    0.0686    0.8614 H         1 <0>         0.0000
     22 H4          1.1948   -0.9720    4.5234 H         1 <0>         0.0000
     23 H5         -0.3658   -0.9547   -2.0645 H         1 <0>         0.0000
     24 H6         -1.0574    0.6829   -2.1532 H         1 <0>         0.0000
     25 H7         -0.0948    0.0718   -3.4929 H         1 <0>         0.0000
     26 H8         -3.5136   -1.1092    1.0317 H         1 <0>         0.0000
     27 H9         -3.2608   -2.1323   -0.4027 H         1 <0>         0.0000
     28 H10        -3.5696   -2.8836    1.1579 H         1 <0>         0.0000
     29 H11         1.2400    1.6607   -2.1034 H         1 <0>         0.0000
     30 H12         1.9355    0.0218   -2.0106 H         1 <0>         0.0000
     31 H13        -1.1411   -3.0052    0.5880 H         1 <0>         0.0000
     32 H14        -1.3896   -1.9787    2.0243 H         1 <0>         0.0000
@<TRIPOS>BOND
     1    1    3 ar
     2    1    5 ar
     3    2    4 ar
     4    2    5 ar
     5    3    6 ar
     6    4    6 ar
     7    5   11 1
     8    6   15 1
     9    7    9 1
    10    8   10 1
    11    9   16 1
    12   10   17 1
    13   11   12 1
    14   11   13 2
    15   14   18 2
    16   15   18 1
    17   16   18 1
    18   17   18 1
    19    1   19 1
    20    2   20 1
    21    3   21 1
    22    4   22 1
    23    7   23 1
    24    7   24 1
    25    7   25 1
    26    8   26 1
    27    8   27 1
    28    8   28 1
    29    9   29 1
    30    9   30 1
    31   10   31 1
    32   10   32 1
@<TRIPOS>MOLECULE
*****
   32    32     0     0     0
SMALL
NO_CHARGES

@<TRIPOS>ATOM
      1 C1         -0.9369   -2.6587    4.2467 C.ar      1 <0>         0.0000
      2 C2          1.3795   -2.5237    4.9198 C.ar      1 <0>         0.0000
      3 C3         -0.6812   -1.7832    3.1914 C.ar      1 <0>         0.0000
      4 C4          1.6352   -1.6483    3.8644 C.ar      1 <0>         0.0000
      5 C5          0.0935   -3.0289    5.1110 C.ar      1 <0>         0.0000
      6 C6          0.6048   -1.2781    3.0002 C.ar      1 <0>         0.0000
      7 C7          2.2086    2.4977   -1.0990 C.3       1 <0>         0.0000
      8 C8         -3.2636   -0.3588    0.1832 C.3       1 <0>         0.0000
      9 C9          2.2078    1.1900   -0.3364 C.3       1 <0>         0.0000
     10 C10        -1.8366    0.1297    0.3122 C.3       1 <0>         0.0000
     11 N1         -0.1665   -3.9199    6.1856 N.pl3     1 <0>         0.0000
     12 O1         -1.3303   -4.3630    6.3403 O.3       1 <0>         0.0000
     13 O2          0.7746   -4.2397    6.9516 O.2       1 <0>         0.0000
     14 O3          1.4463   -1.9247   -0.1105 O.2       1 <0>         0.0000
     15 O4          0.8556   -0.4191    1.9646 O.3       1 <0>         0.0000
     16 O5          0.8996    0.6457   -0.3547 O.3       1 <0>         0.0000
     17 O6         -0.9623   -0.9855    0.2818 O.3       1 <0>         0.0000
     18 P1          0.6399   -0.7644    0.4012 P.3       1 <0>         0.0000
     19 H1         -1.9437   -3.0454    4.3843 H         1 <0>         0.0000
     20 H2          2.1918   -2.8036    5.5862 H         1 <0>         0.0000
     21 H3         -1.4879   -1.4987    2.5212 H         1 <0>         0.0000
     22 H4          2.6390   -1.2578    3.7209 H         1 <0>         0.0000
     23 H5          1.9097    2.3428   -2.1395 H         1 <0>         0.0000
     24 H6          1.5219    3.2145   -0.6369 H         1 <0>         0.0000
     25 H7          3.2040    2.9539   -1.0817 H         1 <0>         0.0000
     26 H8         -3.4100   -0.8912   -0.7607 H         1 <0>         0.0000
     27 H9         -3.5184   -1.0292    1.0105 H         1 <0>         0.0000
     28 H10        -3.9645    0.4815    0.2271 H         1 <0>         0.0000
     29 H11         2.5076    1.3519    0.7033 H         1 <0>         0.0000
     30 H12         2.8938    0.4747   -0.7999 H         1 <0>         0.0000
     31 H13        -1.6970    0.6613    1.2582 H         1 <0>         0.0000
     32 H14        -1.5835    0.7988   -0.5156 H         1 <0>         0.0000
@<TRIPOS>BOND
     1    1    3 ar
     2    1    5 ar
     3    2    4 ar
     4    2    5 ar
     5    3    6 ar
     6    4    6 ar
     7    5   11 1
     8    6   15 1
     9    7    9 1
    10    8   10 1
    11    9   16 1
    12   10   17 1
    13   11   12 1
    14   11   13 2
    15   14   18 2
    16   15   18 1
    17   16   18 1
    18   17   18 1
    19    1   19 1
    20    2   20 1
    21    3   21 1
    22    4   22 1
    23    7   23 1
    24    7   24 1
    25    7   25 1
    26    8   26 1
    27    8   27 1
    28    8   28 1
    29    9   29 1
    30    9   30 1
    31   10   31 1
    32   10   32 1
@<TRIPOS>MOLECULE
*****
   32    32     0     0     0
SMALL
NO_CHARGES

@<TRIPOS>ATOM
      1 C1         -1.2141    2.3520    3.1784 C.ar      1 <0>         0.0000
      2 C2         -1.4744    0.4577    4.6552 C.ar      1 <0>         0.0000
      3 C3         -0.3275    1.6169    2.3917 C.ar      1 <0>         0.0000
      4 C4         -0.5877   -0.2775    3.8684 C.ar      1 <0>         0.0000
      5 C5         -1.7876    1.7725    4.3102 C.ar      1 <0>         0.0000
      6 C6         -0.0143    0.3022    2.7366 C.ar      1 <0>         0.0000
      7 C7          2.2086    2.4977   -1.0990 C.3       1 <0>         0.0000
      8 C8         -3.0270   -2.1796    0.3797 C.3       1 <0>         0.0000
      9 C9          2.2078    1.1900   -0.3364 C.3       1 <0>         0.0000
     10 C10        -1.5270   -2.2533    0.5694 C.3       1 <0>         0.0000
     11 N1         -2.6901    2.5206    5.1115 N.pl3     1 <0>         0.0000
     12 O1         -2.9585    3.7018    4.7839 O.3       1 <0>         0.0000
     13 O2         -3.1943    1.9803    6.1256 O.2       1 <0>         0.0000
     14 O3          1.4463   -1.9247   -0.1105 O.2       1 <0>         0.0000
     15 O4          0.8556   -0.4191    1.9646 O.3       1 <0>         0.0000
     16 O5          0.8996    0.6457   -0.3547 O.3       1 <0>         0.0000
     17 O6         -0.9623   -0.9855    0.2818 O.3       1 <0>         0.0000
     18 P1          0.6399   -0.7644    0.4012 P.3       1 <0>         0.0000
     19 H1         -1.4500    3.3757    2.8981 H         1 <0>         0.0000
     20 H2         -1.9137   -0.0062    5.5349 H         1 <0>         0.0000
     21 H3          0.1158    2.0737    1.5110 H         1 <0>         0.0000
     22 H4         -0.3474   -1.3011    4.1425 H         1 <0>         0.0000
     23 H5          1.9097    2.3428   -2.1395 H         1 <0>         0.0000
     24 H6          1.5219    3.2145   -0.6369 H         1 <0>         0.0000
     25 H7          3.2040    2.9539   -1.0817 H         1 <0>         0.0000
     26 H8         -3.4695   -1.4398    1.0526 H         1 <0>         0.0000
     27 H9         -3.2728   -1.9101   -0.6527 H         1 <0>         0.0000
     28 H10        -3.4887   -3.1536    0.5729 H         1 <0>         0.0000
     29 H11         2.5076    1.3519    0.7033 H         1 <0>         0.0000
     30 H12         2.8938    0.4747   -0.7999 H         1 <0>         0.0000
     31 H13        -1.0907   -2.9950   -0.1065 H         1 <0>         0.0000
     32 H14        -1.2832   -2.5218    1.6016 H         1 <0>         0.0000
@<TRIPOS>BOND
     1    1    3 ar
     2    1    5 ar
     3    2    4 ar
     4    2    5 ar
     5    3    6 ar
     6    4    6 ar
     7    5   11 1
     8    6   15 1
     9    7    9 1
    10    8   10 1
    11    9   16 1
    12   10   17 1
    13   11   12 1
    14   11   13 2
    15   14   18 2
    16   15   18 1
    17   16   18 1
    18   17   18 1
    19    1   19 1
    20    2   20 1
    21    3   21 1
    22    4   22 1
    23    7   23 1
    24    7   24 1
    25    7   25 1
    26    8   26 1
    27    8   27 1
    28    8   28 1
    29    9   29 1
    30    9   30 1
    31   10   31 1
    32   10   32 1
@<TRIPOS>MOLECULE
*****
   32    32     0     0     0
SMALL
NO_CHARGES

@<TRIPOS>ATOM
      1 C1          4.0151   -1.6648    3.3439 C.ar      1 <0>         0.0000
      2 C2          3.7811    0.6790    3.8811 C.ar      1 <0>         0.0000
      3 C3          2.7889   -1.6351    2.6798 C.ar      1 <0>         0.0000
      4 C4          2.5548    0.7088    3.2170 C.ar      1 <0>         0.0000
      5 C5          4.5112   -0.5077    3.9447 C.ar      1 <0>         0.0000
      6 C6          2.0588   -0.4483    2.6163 C.ar      1 <0>         0.0000
      7 C7          2.2245    2.3317   -1.4032 C.3       1 <0>         0.0000
      8 C8         -3.0270   -2.1796    0.3797 C.3       1 <0>         0.0000
      9 C9          2.2277    0.9829   -0.7159 C.3       1 <0>         0.0000
     10 C10        -1.5270   -2.2533    0.5694 C.3       1 <0>         0.0000
     11 N1          5.7594   -0.5377    4.6210 N.pl3     1 <0>         0.0000
     12 O1          6.4005   -1.6154    4.6668 O.3       1 <0>         0.0000
     13 O2          6.1871    0.5143    5.1549 O.2       1 <0>         0.0000
     14 O3          1.4463   -1.9247   -0.1105 O.2       1 <0>         0.0000
     15 O4          0.8556   -0.4191    1.9646 O.3       1 <0>         0.0000
     16 O5          0.8996    0.6457   -0.3547 O.3       1 <0>         0.0000
     17 O6         -0.9623   -0.9855    0.2818 O.3       1 <0>         0.0000
     18 P1          0.6399   -0.7644    0.4012 P.3       1 <0>         0.0000
     19 H1          4.5743   -2.5963    3.3858 H         1 <0>         0.0000
     20 H2          4.1556    1.5881    4.3454 H         1 <0>         0.0000
     21 H3          2.4078   -2.5395    2.2135 H         1 <0>         0.0000
     22 H4          1.9905    1.6362    3.1712 H         1 <0>         0.0000
     23 H5          1.6123    2.3067   -2.3089 H         1 <0>         0.0000
     24 H6          1.8340    3.1051   -0.7337 H         1 <0>         0.0000
     25 H7          3.2431    2.6294   -1.6734 H         1 <0>         0.0000
     26 H8         -3.4695   -1.4398    1.0526 H         1 <0>         0.0000
     27 H9         -3.2728   -1.9101   -0.6527 H         1 <0>         0.0000
     28 H10        -3.4887   -3.1536    0.5729 H         1 <0>         0.0000
     29 H11         2.8418    1.0147    0.1891 H         1 <0>         0.0000
     30 H12         2.6174    0.2112   -1.3864 H         1 <0>         0.0000
     31 H13        -1.0907   -2.9950   -0.1065 H         1 <0>         0.0000
     32 H14        -1.2832   -2.5218    1.6016 H         1 <0>         0.0000
@<TRIPOS>BOND
     1    1    3 ar
     2    1    5 ar
     3    2    4 ar
     4    2    5 ar
     5    3    6 ar
     6    4    6 ar
     7    5   11 1
     8    6   15 1
     9    7    9 1
    10    8   10 1
    11    9   16 1
    12   10   17 1
    13   11   12 1
    14   11   13 2
    15   14   18 2
    16   15   18 1
    17   16   18 1
    18   17   18 1
    19    1   19 1
    20    2   20 1
    21    3   21 1
    22    4   22 1
    23    7   23 1
    24    7   24 1
    25    7   25 1
    26    8   26 1
    27    8   27 1
    28    8   28 1
    29    9   29 1
    30    9   30 1
    31   10   31 1
    32   10   32 1
@<TRIPOS>MOLECULE
*****
   32    32     0     0     0
SMALL
NO_CHARGES

@<TRIPOS>ATOM
      1 C1          0.4838   -3.5292    3.8688 C.ar      1 <0>         0.0000
      2 C2         -0.0408   -1.6531    5.2979 C.ar      1 <0>         0.0000
      3 C3          0.7393   -2.6538    2.8134 C.ar      1 <0>         0.0000
      4 C4          0.2148   -0.7777    4.2425 C.ar      1 <0>         0.0000
      5 C5          0.0937   -3.0289    5.1111 C.ar      1 <0>         0.0000
      6 C6          0.6048   -1.2781    3.0002 C.ar      1 <0>         0.0000
      7 C7          3.0787    1.0430    0.5347 C.3       1 <0>         0.0000
      8 C8         -3.2760   -0.4393    0.4984 C.3       1 <0>         0.0000
      9 C9          2.2277    0.9829   -0.7159 C.3       1 <0>         0.0000
     10 C10        -1.8528    0.0243    0.7248 C.3       1 <0>         0.0000
     11 N1         -0.1667   -3.9198    6.1857 N.pl3     1 <0>         0.0000
     12 O1         -0.0400   -5.1538    5.9969 O.3       1 <0>         0.0000
     13 O2         -0.5168   -3.4487    7.2948 O.2       1 <0>         0.0000
     14 O3          1.4463   -1.9247   -0.1105 O.2       1 <0>         0.0000
     15 O4          0.8556   -0.4191    1.9646 O.3       1 <0>         0.0000
     16 O5          0.8996    0.6457   -0.3547 O.3       1 <0>         0.0000
     17 O6         -0.9623   -0.9855    0.2818 O.3       1 <0>         0.0000
     18 P1          0.6399   -0.7644    0.4012 P.3       1 <0>         0.0000
     19 H1          0.5927   -4.5992    3.7099 H         1 <0>         0.0000
     20 H2         -0.3446   -1.2496    6.2607 H         1 <0>         0.0000
     21 H3          1.0431   -3.0495    1.8481 H         1 <0>         0.0000
     22 H4          0.1079    0.2930    4.3940 H         1 <0>         0.0000
     23 H5          2.7021    1.8013    1.2268 H         1 <0>         0.0000
     24 H6          3.0869    0.0732    1.0430 H         1 <0>         0.0000
     25 H7          4.1180    1.2792    0.2832 H         1 <0>         0.0000
     26 H8         -3.4612   -0.6268   -0.5629 H         1 <0>         0.0000
     27 H9         -3.4768   -1.3576    1.0600 H         1 <0>         0.0000
     28 H10        -3.9880    0.3131    0.8537 H         1 <0>         0.0000
     29 H11         2.6097    0.2226   -1.4038 H         1 <0>         0.0000
     30 H12         2.2200    1.9528   -1.2221 H         1 <0>         0.0000
     31 H13        -1.6742    0.2100    1.7881 H         1 <0>         0.0000
     32 H14        -1.6537    0.9414    0.1624 H         1 <0>         0.0000
@<TRIPOS>BOND
     1    1    3 ar
     2    1    5 ar
     3    2    4 ar
     4    2    5 ar
     5    3    6 ar
     6    4    6 ar
     7    5   11 1
     8    6   15 1
     9    7    9 1
    10    8   10 1
    11    9   16 1
    12   10   17 1
    13   11   12 1
    14   11   13 2
    15   14   18 2
    16   15   18 1
    17   16   18 1
    18   17   18 1
    19    1   19 1
    20    2   20 1
    21    3   21 1
    22    4   22 1
    23    7   23 1
    24    7   24 1
    25    7   25 1
    26    8   26 1
    27    8   27 1
    28    8   28 1
    29    9   29 1
    30    9   30 1
    31   10   31 1
    32   10   32 1
@<TRIPOS>MOLECULE
*****
   32    32     0     0     0
SMALL
NO_CHARGES

@<TRIPOS>ATOM
      1 C1          1.0277   -3.3697    4.1328 C.ar      1 <0>         0.0000
      2 C2         -0.5847   -1.8125    5.0340 C.ar      1 <0>         0.0000
      3 C3          1.2833   -2.4944    3.0774 C.ar      1 <0>         0.0000
      4 C4         -0.3292   -0.9371    3.9785 C.ar      1 <0>         0.0000
      5 C5          0.0937   -3.0288    5.1112 C.ar      1 <0>         0.0000
      6 C6          0.6048   -1.2781    3.0002 C.ar      1 <0>         0.0000
      7 C7          0.5787    2.9742   -0.7699 C.3       1 <0>         0.0000
      8 C8         -1.1543   -0.7830   -2.0890 C.3       1 <0>         0.0000
      9 C9          0.1738    1.7847    0.0744 C.3       1 <0>         0.0000
     10 C10        -1.5090   -1.6064   -0.8692 C.3       1 <0>         0.0000
     11 N1         -0.1668   -3.9198    6.1856 N.pl3     1 <0>         0.0000
     12 O1          0.4541   -5.0090    6.2366 O.3       1 <0>         0.0000
     13 O2         -1.0112   -3.5938    7.0548 O.2       1 <0>         0.0000
     14 O3          1.4463   -1.9247   -0.1105 O.2       1 <0>         0.0000
     15 O4          0.8556   -0.4191    1.9646 O.3       1 <0>         0.0000
     16 O5          0.8996    0.6457   -0.3547 O.3       1 <0>         0.0000
     17 O6         -0.9623   -0.9855    0.2818 O.3       1 <0>         0.0000
     18 P1          0.6399   -0.7644    0.4012 P.3       1 <0>         0.0000
     19 H1          1.5637   -4.3144    4.1813 H         1 <0>         0.0000
     20 H2         -1.3156   -1.5344    5.7894 H         1 <0>         0.0000
     21 H3          2.0122   -2.7653    2.3185 H         1 <0>         0.0000
     22 H4         -0.8612    0.0088    3.9236 H         1 <0>         0.0000
     23 H5          1.6473    3.1815   -0.6651 H         1 <0>         0.0000
     24 H6          0.3559    2.7916   -1.8263 H         1 <0>         0.0000
     25 H7          0.0154    3.8660   -0.4754 H         1 <0>         0.0000
     26 H8         -1.5640    0.2279   -2.0101 H         1 <0>         0.0000
     27 H9         -0.0678   -0.7160   -2.2070 H         1 <0>         0.0000
     28 H10        -1.5447   -1.2523   -2.9981 H         1 <0>         0.0000
     29 H11        -0.8959    1.5828   -0.0350 H         1 <0>         0.0000
     30 H12         0.3978    1.9686    1.1294 H         1 <0>         0.0000
     31 H13        -1.0963   -2.6161   -0.9545 H         1 <0>         0.0000
     32 H14        -2.5948   -1.6716   -0.7524 H         1 <0>         0.0000
@<TRIPOS>BOND
     1    1    3 ar
     2    1    5 ar
     3    2    4 ar
     4    2    5 ar
     5    3    6 ar
     6    4    6 ar
     7    5   11 1
     8    6   15 1
     9    7    9 1
    10    8   10 1
    11    9   16 1
    12   10   17 1
    13   11   12 1
    14   11   13 2
    15   14   18 2
    16   15   18 1
    17   16   18 1
    18   17   18 1
    19    1   19 1
    20    2   20 1
    21    3   21 1
    22    4   22 1
    23    7   23 1
    24    7   24 1
    25    7   25 1
    26    8   26 1
    27    8   27 1
    28    8   28 1
    29    9   29 1
    30    9   30 1
    31   10   31 1
    32   10   32 1
@<TRIPOS>MOLECULE
*****
   32    32     0     0     0
SMALL
NO_CHARGES

@<TRIPOS>ATOM
      1 C1         -0.1305   -3.4373    3.7963 C.ar      1 <0>         0.0000
      2 C2          0.5734   -1.7451    5.3704 C.ar      1 <0>         0.0000
      3 C3          0.1250   -2.5619    2.7409 C.ar      1 <0>         0.0000
      4 C4          0.8290   -0.8696    4.3150 C.ar      1 <0>         0.0000
      5 C5          0.0936   -3.0289    5.1111 C.ar      1 <0>         0.0000
      6 C6          0.6048   -1.2781    3.0002 C.ar      1 <0>         0.0000
      7 C7          3.2838    0.5769   -0.2642 C.3       1 <0>         0.0000
      8 C8         -3.0494   -1.3745   -0.8096 C.3       1 <0>         0.0000
      9 C9          2.0432    1.4023    0.0030 C.3       1 <0>         0.0000
     10 C10        -1.5563   -1.1996   -0.9873 C.3       1 <0>         0.0000
     11 N1         -0.1666   -3.9198    6.1857 N.pl3     1 <0>         0.0000
     12 O1         -0.5980   -5.0703    5.9310 O.3       1 <0>         0.0000
     13 O2          0.0415   -3.5321    7.3609 O.2       1 <0>         0.0000
     14 O3          1.4463   -1.9247   -0.1105 O.2       1 <0>         0.0000
     15 O4          0.8556   -0.4191    1.9646 O.3       1 <0>         0.0000
     16 O5          0.8996    0.6457   -0.3547 O.3       1 <0>         0.0000
     17 O6         -0.9623   -0.9855    0.2818 O.3       1 <0>         0.0000
     18 P1          0.6399   -0.7644    0.4012 P.3       1 <0>         0.0000
     19 H1         -0.5039   -4.4353    3.5803 H         1 <0>         0.0000
     20 H2          0.7521   -1.4136    6.3904 H         1 <0>         0.0000
     21 H3         -0.0512   -2.8858    1.7187 H         1 <0>         0.0000
     22 H4          1.2023    0.1293    4.5234 H         1 <0>         0.0000
     23 H5          3.2752   -0.3431    0.3268 H         1 <0>         0.0000
     24 H6          3.3520    0.3149   -1.3252 H         1 <0>         0.0000
     25 H7          4.1863    1.1463   -0.0183 H         1 <0>         0.0000
     26 H8         -3.2684   -2.2356   -0.1721 H         1 <0>         0.0000
     27 H9         -3.4920   -0.4798   -0.3596 H         1 <0>         0.0000
     28 H10        -3.5390   -1.5187   -1.7785 H         1 <0>         0.0000
     29 H11         2.0581    2.3208   -0.5911 H         1 <0>         0.0000
     30 H12         1.9761    1.6624    1.0636 H         1 <0>         0.0000
     31 H13        -1.3442   -0.3369   -1.6258 H         1 <0>         0.0000
     32 H14        -1.1155   -2.0947   -1.4362 H         1 <0>         0.0000
@<TRIPOS>BOND
     1    1    3 ar
     2    1    5 ar
     3    2    4 ar
     4    2    5 ar
     5    3    6 ar
     6    4    6 ar
     7    5   11 1
     8    6   15 1
     9    7    9 1
    10    8   10 1
    11    9   16 1
    12   10   17 1
    13   11   12 1
    14   11   13 2
    15   14   18 2
    16   15   18 1
    17   16   18 1
    18   17   18 1
    19    1   19 1
    20    2   20 1
    21    3   21 1
    22    4   22 1
    23    7   23 1
    24    7   24 1
    25    7   25 1
    26    8   26 1
    27    8   27 1
    28    8   28 1
    29    9   29 1
    30    9   30 1
    31   10   31 1
    32   10   32 1
@<TRIPOS>MOLECULE
*****
   32    32     0     0     0
SMALL
NO_CHARGES

@<TRIPOS>ATOM
      1 C1          4.3277    0.3460    2.8569 C.ar      1 <0>         0.0000
      2 C2          3.4684   -1.3314    4.3685 C.ar      1 <0>         0.0000
      3 C3          3.1015    0.3756    2.1927 C.ar      1 <0>         0.0000
      4 C4          2.2422   -1.3018    3.7042 C.ar      1 <0>         0.0000
      5 C5          4.5111   -0.5076    3.9448 C.ar      1 <0>         0.0000
      6 C6          2.0588   -0.4483    2.6163 C.ar      1 <0>         0.0000
      7 C7          0.5787    2.9742   -0.7699 C.3       1 <0>         0.0000
      8 C8         -1.1543   -0.7830   -2.0890 C.3       1 <0>         0.0000
      9 C9          0.1738    1.7847    0.0744 C.3       1 <0>         0.0000
     10 C10        -1.5090   -1.6064   -0.8692 C.3       1 <0>         0.0000
     11 N1          5.7593   -0.5381    4.6211 N.pl3     1 <0>         0.0000
     12 O1          6.6846    0.2109    4.2241 O.3       1 <0>         0.0000
     13 O2          5.9033   -1.3135    5.5971 O.2       1 <0>         0.0000
     14 O3          1.4463   -1.9247   -0.1105 O.2       1 <0>         0.0000
     15 O4          0.8556   -0.4191    1.9646 O.3       1 <0>         0.0000
     16 O5          0.8996    0.6457   -0.3547 O.3       1 <0>         0.0000
     17 O6         -0.9623   -0.9855    0.2818 O.3       1 <0>         0.0000
     18 P1          0.6399   -0.7644    0.4012 P.3       1 <0>         0.0000
     19 H1          5.1321    0.9936    2.5167 H         1 <0>         0.0000
     20 H2          3.5978   -2.0019    5.2146 H         1 <0>         0.0000
     21 H3          2.9645    1.0428    1.3460 H         1 <0>         0.0000
     22 H4          1.4338   -1.9463    4.0387 H         1 <0>         0.0000
     23 H5          1.6473    3.1815   -0.6651 H         1 <0>         0.0000
     24 H6          0.3559    2.7916   -1.8263 H         1 <0>         0.0000
     25 H7          0.0154    3.8660   -0.4754 H         1 <0>         0.0000
     26 H8         -1.5640    0.2279   -2.0101 H         1 <0>         0.0000
     27 H9         -0.0678   -0.7160   -2.2070 H         1 <0>         0.0000
     28 H10        -1.5447   -1.2523   -2.9981 H         1 <0>         0.0000
     29 H11        -0.8959    1.5828   -0.0350 H         1 <0>         0.0000
     30 H12         0.3978    1.9686    1.1294 H         1 <0>         0.0000
     31 H13        -1.0963   -2.6161   -0.9545 H         1 <0>         0.0000
     32 H14        -2.5948   -1.6716   -0.7524 H         1 <0>         0.0000
@<TRIPOS>BOND
     1    1    3 ar
     2    1    5 ar
     3    2    4 ar
     4    2    5 ar
     5    3    6 ar
     6    4    6 ar
     7    5   11 1
     8    6   15 1
     9    7    9 1
    10    8   10 1
    11    9   16 1
    12   10   17 1
    13   11   12 1
    14   11   13 2
    15   14   18 2
    16   15   18 1
    17   16   18 1
    18   17   18 1
    19    1   19 1
    20    2   20 1
    21    3   21 1
    22    4   22 1
    23    7   23 1
    24    7   24 1
    25    7   25 1
    26    8   26 1
    27    8   27 1
    28    8   28 1
    29    9   29 1
    30    9   30 1
    31   10   31 1
    32   10   32 1
@<TRIPOS>MOLECULE
*****
   32    32     0     0     0
SMALL
NO_CHARGES

@<TRIPOS>ATOM
      1 C1         -1.0163    2.2166    3.6925 C.ar      1 <0>         0.0000
      2 C2          1.2141    3.0100    3.2096 C.ar      1 <0>         0.0000
      3 C3         -0.7113    0.9945    3.0933 C.ar      1 <0>         0.0000
      4 C4          1.5191    1.7878    2.6105 C.ar      1 <0>         0.0000
      5 C5         -0.0536    3.2244    3.7505 C.ar      1 <0>         0.0000
      6 C6          0.5564    0.7801    2.5524 C.ar      1 <0>         0.0000
      7 C7          0.9532    2.1233   -2.2286 C.3       1 <0>         0.0000
      8 C8         -3.0680   -2.0405    0.6713 C.3       1 <0>         0.0000
      9 C9          0.6411    0.7228   -1.7459 C.3       1 <0>         0.0000
     10 C10        -1.5805   -2.0713    0.9510 C.3       1 <0>         0.0000
     11 N1         -0.3639    4.4687    4.3602 N.pl3     1 <0>         0.0000
     12 O1         -1.5101    4.6414    4.8407 O.3       1 <0>         0.0000
     13 O2          0.5166    5.3619    4.4014 O.2       1 <0>         0.0000
     14 O3          1.4463   -1.9247   -0.1105 O.2       1 <0>         0.0000
     15 O4          0.8556   -0.4191    1.9646 O.3       1 <0>         0.0000
     16 O5          0.8996    0.6457   -0.3547 O.3       1 <0>         0.0000
     17 O6         -0.9623   -0.9855    0.2818 O.3       1 <0>         0.0000
     18 P1          0.6399   -0.7644    0.4012 P.3       1 <0>         0.0000
     19 H1         -2.0081    2.3706    4.1106 H         1 <0>         0.0000
     20 H2          1.9737    3.7870    3.2475 H         1 <0>         0.0000
     21 H3         -1.4652    0.2131    3.0514 H         1 <0>         0.0000
     22 H4          2.5082    1.6269    2.1904 H         1 <0>         0.0000
     23 H5          0.3289    2.8607   -1.7163 H         1 <0>         0.0000
     24 H6          2.0058    2.3671   -2.0514 H         1 <0>         0.0000
     25 H7          0.7845    2.2061   -3.3074 H         1 <0>         0.0000
     26 H8         -3.5136   -1.1092    1.0317 H         1 <0>         0.0000
     27 H9         -3.2608   -2.1323   -0.4027 H         1 <0>         0.0000
     28 H10        -3.5696   -2.8836    1.1579 H         1 <0>         0.0000
     29 H11         1.2688   -0.0097   -2.2621 H         1 <0>         0.0000
     30 H12        -0.4111    0.4812   -1.9229 H         1 <0>         0.0000
     31 H13        -1.1411   -3.0052    0.5880 H         1 <0>         0.0000
     32 H14        -1.3896   -1.9787    2.0243 H         1 <0>         0.0000
@<TRIPOS>BOND
     1    1    3 ar
     2    1    5 ar
     3    2    4 ar
     4    2    5 ar
     5    3    6 ar
     6    4    6 ar
     7    5   11 1
     8    6   15 1
     9    7    9 1
    10    8   10 1
    11    9   16 1
    12   10   17 1
    13   11   12 1
    14   11   13 2
    15   14   18 2
    16   15   18 1
    17   16   18 1
    18   17   18 1
    19    1   19 1
    20    2   20 1
    21    3   21 1
    22    4   22 1
    23    7   23 1
    24    7   24 1
    25    7   25 1
    26    8   26 1
    27    8   27 1
    28    8   28 1
    29    9   29 1
    30    9   30 1
    31   10   31 1
    32   10   32 1
@<TRIPOS>MOLECULE
*****
   32    32     0     0     0
SMALL
NO_CHARGES

@<TRIPOS>ATOM
      1 C1         -0.6533   -3.1170    3.9347 C.ar      1 <0>         0.0000
      2 C2         -0.6159   -1.0931    5.2536 C.ar      1 <0>         0.0000
      3 C3         -0.0527   -2.4375    2.8749 C.ar      1 <0>         0.0000
      4 C4         -0.0153   -0.4136    4.1938 C.ar      1 <0>         0.0000
      5 C5         -0.9349   -2.4448    5.1241 C.ar      1 <0>         0.0000
      6 C6          0.2663   -1.0858    3.0045 C.ar      1 <0>         0.0000
      7 C7          2.2245    2.3317   -1.4032 C.3       1 <0>         0.0000
      8 C8         -1.1543   -0.7830   -2.0890 C.3       1 <0>         0.0000
      9 C9          2.2277    0.9829   -0.7159 C.3       1 <0>         0.0000
     10 C10        -1.5090   -1.6064   -0.8692 C.3       1 <0>         0.0000
     11 N1         -1.5465   -3.1363    6.2030 N.pl3     1 <0>         0.0000
     12 O1         -1.8255   -4.3520    6.0661 O.3       1 <0>         0.0000
     13 O2         -1.7916   -2.5126    7.2640 O.2       1 <0>         0.0000
     14 O3          1.4463   -1.9247   -0.1105 O.2       1 <0>         0.0000
     15 O4          0.8556   -0.4191    1.9646 O.3       1 <0>         0.0000
     16 O5          0.8996    0.6457   -0.3547 O.3       1 <0>         0.0000
     17 O6         -0.9623   -0.9855    0.2818 O.3       1 <0>         0.0000
     18 P1          0.6399   -0.7644    0.4012 P.3       1 <0>         0.0000
     19 H1         -0.8964   -4.1706    3.8207 H         1 <0>         0.0000
     20 H2         -0.8303   -0.5569    6.1748 H         1 <0>         0.0000
     21 H3          0.1645   -2.9666    1.9510 H         1 <0>         0.0000
     22 H4          0.2305    0.6394    4.3006 H         1 <0>         0.0000
     23 H5          1.6123    2.3067   -2.3089 H         1 <0>         0.0000
     24 H6          1.8340    3.1051   -0.7337 H         1 <0>         0.0000
     25 H7          3.2431    2.6294   -1.6734 H         1 <0>         0.0000
     26 H8         -1.5640    0.2279   -2.0101 H         1 <0>         0.0000
     27 H9         -0.0678   -0.7160   -2.2070 H         1 <0>         0.0000
     28 H10        -1.5447   -1.2523   -2.9981 H         1 <0>         0.0000
     29 H11         2.8418    1.0147    0.1891 H         1 <0>         0.0000
     30 H12         2.6174    0.2112   -1.3864 H         1 <0>         0.0000
     31 H13        -1.0963   -2.6161   -0.9545 H         1 <0>         0.0000
     32 H14        -2.5948   -1.6716   -0.7524 H         1 <0>         0.0000
@<TRIPOS>BOND
     1    1    3 ar
     2    1    5 ar
     3    2    4 ar
     4    2    5 ar
     5    3    6 ar
     6    4    6 ar
     7    5   11 1
     8    6   15 1
     9    7    9 1
    10    8   10 1
    11    9   16 1
    12   10   17 1
    13   11   12 1
    14   11   13 2
    15   14   18 2
    16   15   18 1
    17   16   18 1
    18   17   18 1
    19    1   19 1
    20    2   20 1
    21    3   21 1
    22    4   22 1
    23    7   23 1
    24    7   24 1
    25    7   25 1
    26    8   26 1
    27    8   27 1
    28    8   28 1
    29    9   29 1
    30    9   30 1
    31   10   31 1
    32   10   32 1
@<TRIPOS>MOLECULE
*****
   32    32     0     0     0
SMALL
NO_CHARGES

@<TRIPOS>ATOM
      1 C1          0.3001   -2.8692    4.6340 C.ar      1 <0>         0.0000
      2 C2         -1.5693   -1.3408    4.5545 C.ar      1 <0>         0.0000
      3 C3          0.9007   -2.1898    3.5741 C.ar      1 <0>         0.0000
      4 C4         -0.9687   -0.6613    3.4946 C.ar      1 <0>         0.0000
      5 C5         -0.9349   -2.4447    5.1241 C.ar      1 <0>         0.0000
      6 C6          0.2663   -1.0858    3.0045 C.ar      1 <0>         0.0000
      7 C7          2.2245    2.3317   -1.4032 C.3       1 <0>         0.0000
      8 C8         -3.0494   -1.3745   -0.8096 C.3       1 <0>         0.0000
      9 C9          2.2277    0.9829   -0.7159 C.3       1 <0>         0.0000
     10 C10        -1.5563   -1.1996   -0.9873 C.3       1 <0>         0.0000
     11 N1         -1.5466   -3.1363    6.2029 N.pl3     1 <0>         0.0000
     12 O1         -0.9595   -4.1270    6.7012 O.3       1 <0>         0.0000
     13 O2         -2.6580   -2.7381    6.6283 O.2       1 <0>         0.0000
     14 O3          1.4463   -1.9247   -0.1105 O.2       1 <0>         0.0000
     15 O4          0.8556   -0.4191    1.9646 O.3       1 <0>         0.0000
     16 O5          0.8996    0.6457   -0.3547 O.3       1 <0>         0.0000
     17 O6         -0.9623   -0.9855    0.2818 O.3       1 <0>         0.0000
     18 P1          0.6399   -0.7644    0.4012 P.3       1 <0>         0.0000
     19 H1          0.8055   -3.7279    5.0692 H         1 <0>         0.0000
     20 H2         -2.5323   -0.9995    4.9263 H         1 <0>         0.0000
     21 H3          1.8630   -2.5249    3.1968 H         1 <0>         0.0000
     22 H4         -1.4680    0.1977    3.0547 H         1 <0>         0.0000
     23 H5          1.6123    2.3067   -2.3089 H         1 <0>         0.0000
     24 H6          1.8340    3.1051   -0.7337 H         1 <0>         0.0000
     25 H7          3.2431    2.6294   -1.6734 H         1 <0>         0.0000
     26 H8         -3.2684   -2.2356   -0.1721 H         1 <0>         0.0000
     27 H9         -3.4920   -0.4798   -0.3596 H         1 <0>         0.0000
     28 H10        -3.5390   -1.5187   -1.7785 H         1 <0>         0.0000
     29 H11         2.8418    1.0147    0.1891 H         1 <0>         0.0000
     30 H12         2.6174    0.2112   -1.3864 H         1 <0>         0.0000
     31 H13        -1.3442   -0.3369   -1.6258 H         1 <0>         0.0000
     32 H14        -1.1155   -2.0947   -1.4362 H         1 <0>         0.0000
@<TRIPOS>BOND
     1    1    3 ar
     2    1    5 ar
     3    2    4 ar
     4    2    5 ar
     5    3    6 ar
     6    4    6 ar
     7    5   11 1
     8    6   15 1
     9    7    9 1
    10    8   10 1
    11    9   16 1
    12   10   17 1
    13   11   12 1
    14   11   13 2
    15   14   18 2
    16   15   18 1
    17   16   18 1
    18   17   18 1
    19    1   19 1
    20    2   20 1
    21    3   21 1
    22    4   22 1
    23    7   23 1
    24    7   24 1
    25    7   25 1
    26    8   26 1
    27    8   27 1
    28    8   28 1
    29    9   29 1
    30    9   30 1
    31   10   31 1
    32   10   32 1
@<TRIPOS>MOLECULE
*****
   32    32     0     0     0
SMALL
NO_CHARGES

@<TRIPOS>ATOM
      1 C1          4.2253    0.9687    2.3591 C.ar      1 <0>         0.0000
      2 C2          2.8157    1.7809    4.1453 C.ar      1 <0>         0.0000
      3 C3          3.1513    0.2457    1.8402 C.ar      1 <0>         0.0000
      4 C4          1.7417    1.0578    3.6264 C.ar      1 <0>         0.0000
      5 C5          4.0576    1.7363    3.5117 C.ar      1 <0>         0.0000
      6 C6          1.9095    0.2902    2.4738 C.ar      1 <0>         0.0000
      7 C7          0.9532    2.1233   -2.2286 C.3       1 <0>         0.0000
      8 C8         -1.0725   -3.1717    1.2340 C.3       1 <0>         0.0000
      9 C9          0.6411    0.7228   -1.7459 C.3       1 <0>         0.0000
     10 C10        -1.6441   -1.7700    1.2455 C.3       1 <0>         0.0000
     11 N1          5.1508    2.4723    4.0403 N.pl3     1 <0>         0.0000
     12 O1          6.2596    2.4186    3.4553 O.3       1 <0>         0.0000
     13 O2          4.9784    3.1560    5.0783 O.2       1 <0>         0.0000
     14 O3          1.4463   -1.9247   -0.1105 O.2       1 <0>         0.0000
     15 O4          0.8556   -0.4191    1.9646 O.3       1 <0>         0.0000
     16 O5          0.8996    0.6457   -0.3547 O.3       1 <0>         0.0000
     17 O6         -0.9623   -0.9855    0.2818 O.3       1 <0>         0.0000
     18 P1          0.6399   -0.7644    0.4012 P.3       1 <0>         0.0000
     19 H1          5.1879    0.9256    1.8553 H         1 <0>         0.0000
     20 H2          2.6711    2.3746    5.0446 H         1 <0>         0.0000
     21 H3          3.2881   -0.3502    0.9419 H         1 <0>         0.0000
     22 H4          0.7768    1.0962    4.1246 H         1 <0>         0.0000
     23 H5          0.3289    2.8607   -1.7163 H         1 <0>         0.0000
     24 H6          2.0058    2.3671   -2.0514 H         1 <0>         0.0000
     25 H7          0.7845    2.2061   -3.3074 H         1 <0>         0.0000
     26 H8         -1.1994   -3.6368    0.2525 H         1 <0>         0.0000
     27 H9         -0.0063   -3.1559    1.4826 H         1 <0>         0.0000
     28 H10        -1.5656   -3.7956    1.9869 H         1 <0>         0.0000
     29 H11         1.2688   -0.0097   -2.2621 H         1 <0>         0.0000
     30 H12        -0.4111    0.4812   -1.9229 H         1 <0>         0.0000
     31 H13        -1.5139   -1.3105    2.2299 H         1 <0>         0.0000
     32 H14        -2.7092   -1.7875    0.9962 H         1 <0>         0.0000
@<TRIPOS>BOND
     1    1    3 ar
     2    1    5 ar
     3    2    4 ar
     4    2    5 ar
     5    3    6 ar
     6    4    6 ar
     7    5   11 1
     8    6   15 1
     9    7    9 1
    10    8   10 1
    11    9   16 1
    12   10   17 1
    13   11   12 1
    14   11   13 2
    15   14   18 2
    16   15   18 1
    17   16   18 1
    18   17   18 1
    19    1   19 1
    20    2   20 1
    21    3   21 1
    22    4   22 1
    23    7   23 1
    24    7   24 1
    25    7   25 1
    26    8   26 1
    27    8   27 1
    28    8   28 1
    29    9   29 1
    30    9   30 1
    31   10   31 1
    32   10   32 1
@<TRIPOS>MOLECULE
*****
   32    32     0     0     0
SMALL
NO_CHARGES

@<TRIPOS>ATOM
      1 C1          3.2086    2.3247    2.5743 C.ar      1 <0>         0.0000
      2 C2          3.8323    0.4249    3.9304 C.ar      1 <0>         0.0000
      3 C3          2.1346    1.6016    2.0553 C.ar      1 <0>         0.0000
      4 C4          2.7583   -0.2982    3.4114 C.ar      1 <0>         0.0000
      5 C5          4.0575    1.7363    3.5119 C.ar      1 <0>         0.0000
      6 C6          1.9095    0.2902    2.4738 C.ar      1 <0>         0.0000
      7 C7          0.9532    2.1233   -2.2286 C.3       1 <0>         0.0000
      8 C8         -3.2760   -0.4393    0.4984 C.3       1 <0>         0.0000
      9 C9          0.6411    0.7228   -1.7459 C.3       1 <0>         0.0000
     10 C10        -1.8528    0.0243    0.7248 C.3       1 <0>         0.0000
     11 N1          5.1510    2.4721    4.0403 N.pl3     1 <0>         0.0000
     12 O1          5.3362    3.6504    3.6506 O.3       1 <0>         0.0000
     13 O2          5.9026    1.9237    4.8823 O.2       1 <0>         0.0000
     14 O3          1.4463   -1.9247   -0.1105 O.2       1 <0>         0.0000
     15 O4          0.8556   -0.4191    1.9646 O.3       1 <0>         0.0000
     16 O5          0.8996    0.6457   -0.3547 O.3       1 <0>         0.0000
     17 O6         -0.9623   -0.9855    0.2818 O.3       1 <0>         0.0000
     18 P1          0.6399   -0.7644    0.4012 P.3       1 <0>         0.0000
     19 H1          3.3726    3.3461    2.2399 H         1 <0>         0.0000
     20 H2          4.4864   -0.0461    4.6601 H         1 <0>         0.0000
     21 H3          1.4766    2.0655    1.3255 H         1 <0>         0.0000
     22 H4          2.5883   -1.3195    3.7410 H         1 <0>         0.0000
     23 H5          0.3289    2.8607   -1.7163 H         1 <0>         0.0000
     24 H6          2.0058    2.3671   -2.0514 H         1 <0>         0.0000
     25 H7          0.7845    2.2061   -3.3074 H         1 <0>         0.0000
     26 H8         -3.4612   -0.6268   -0.5629 H         1 <0>         0.0000
     27 H9         -3.4768   -1.3576    1.0600 H         1 <0>         0.0000
     28 H10        -3.9880    0.3131    0.8537 H         1 <0>         0.0000
     29 H11         1.2688   -0.0097   -2.2621 H         1 <0>         0.0000
     30 H12        -0.4111    0.4812   -1.9229 H         1 <0>         0.0000
     31 H13        -1.6742    0.2100    1.7881 H         1 <0>         0.0000
     32 H14        -1.6537    0.9414    0.1624 H         1 <0>         0.0000
@<TRIPOS>BOND
     1    1    3 ar
     2    1    5 ar
     3    2    4 ar
     4    2    5 ar
     5    3    6 ar
     6    4    6 ar
     7    5   11 1
     8    6   15 1
     9    7    9 1
    10    8   10 1
    11    9   16 1
    12   10   17 1
    13   11   12 1
    14   11   13 2
    15   14   18 2
    16   15   18 1
    17   16   18 1
    18   17   18 1
    19    1   19 1
    20    2   20 1
    21    3   21 1
    22    4   22 1
    23    7   23 1
    24    7   24 1
    25    7   25 1
    26    8   26 1
    27    8   27 1
    28    8   28 1
    29    9   29 1
    30    9   30 1
    31   10   31 1
    32   10   32 1
@<TRIPOS>MOLECULE
*****
   32    32     0     0     0
SMALL
NO_CHARGES

@<TRIPOS>ATOM
      1 C1         -1.3203    2.4475    2.6608 C.ar      1 <0>         0.0000
      2 C2         -0.1490    1.8279    4.6810 C.ar      1 <0>         0.0000
      3 C3         -0.6793    1.4170    1.9731 C.ar      1 <0>         0.0000
      4 C4          0.4920    0.7974    3.9933 C.ar      1 <0>         0.0000
      5 C5         -1.0551    2.6529    4.0148 C.ar      1 <0>         0.0000
      6 C6          0.2268    0.5920    2.6394 C.ar      1 <0>         0.0000
      7 C7          2.2086    2.4977   -1.0990 C.3       1 <0>         0.0000
      8 C8         -3.0680   -2.0405    0.6713 C.3       1 <0>         0.0000
      9 C9          2.2078    1.1900   -0.3364 C.3       1 <0>         0.0000
     10 C10        -1.5805   -2.0713    0.9510 C.3       1 <0>         0.0000
     11 N1         -1.7073    3.7020    4.7151 N.pl3     1 <0>         0.0000
     12 O1         -2.5188    4.4330    4.0973 O.3       1 <0>         0.0000
     13 O2         -1.4540    3.8697    5.9326 O.2       1 <0>         0.0000
     14 O3          1.4463   -1.9247   -0.1105 O.2       1 <0>         0.0000
     15 O4          0.8556   -0.4191    1.9646 O.3       1 <0>         0.0000
     16 O5          0.8996    0.6457   -0.3547 O.3       1 <0>         0.0000
     17 O6         -0.9623   -0.9855    0.2818 O.3       1 <0>         0.0000
     18 P1          0.6399   -0.7644    0.4012 P.3       1 <0>         0.0000
     19 H1         -2.0246    3.0831    2.1297 H         1 <0>         0.0000
     20 H2          0.0674    1.9771    5.7360 H         1 <0>         0.0000
     21 H3         -0.8902    1.2617    0.9185 H         1 <0>         0.0000
     22 H4          1.1971    0.1582    4.5177 H         1 <0>         0.0000
     23 H5          1.9097    2.3428   -2.1395 H         1 <0>         0.0000
     24 H6          1.5219    3.2145   -0.6369 H         1 <0>         0.0000
     25 H7          3.2040    2.9539   -1.0817 H         1 <0>         0.0000
     26 H8         -3.5136   -1.1092    1.0317 H         1 <0>         0.0000
     27 H9         -3.2608   -2.1323   -0.4027 H         1 <0>         0.0000
     28 H10        -3.5696   -2.8836    1.1579 H         1 <0>         0.0000
     29 H11         2.5076    1.3519    0.7033 H         1 <0>         0.0000
     30 H12         2.8938    0.4747   -0.7999 H         1 <0>         0.0000
     31 H13        -1.1411   -3.0052    0.5880 H         1 <0>         0.0000
     32 H14        -1.3896   -1.9787    2.0243 H         1 <0>         0.0000
@<TRIPOS>BOND
     1    1    3 ar
     2    1    5 ar
     3    2    4 ar
     4    2    5 ar
     5    3    6 ar
     6    4    6 ar
     7    5   11 1
     8    6   15 1
     9    7    9 1
    10    8   10 1
    11    9   16 1
    12   10   17 1
    13   11   12 1
    14   11   13 2
    15   14   18 2
    16   15   18 1
    17   16   18 1
    18   17   18 1
    19    1   19 1
    20    2   20 1
    21    3   21 1
    22    4   22 1
    23    7   23 1
    24    7   24 1
    25    7   25 1
    26    8   26 1
    27    8   27 1
    28    8   28 1
    29    9   29 1
    30    9   30 1
    31   10   31 1
    32   10   32 1
@<TRIPOS>MOLECULE
*****
   32    32     0     0     0
SMALL
NO_CHARGES

@<TRIPOS>ATOM
      1 C1          4.3497   -0.5877    3.0599 C.ar      1 <0>         0.0000
      2 C2          3.4012    1.5255    3.7466 C.ar      1 <0>         0.0000
      3 C3          3.1326   -0.9456    2.4801 C.ar      1 <0>         0.0000
      4 C4          2.1841    1.1676    3.1668 C.ar      1 <0>         0.0000
      5 C5          4.4840    0.6478    3.6932 C.ar      1 <0>         0.0000
      6 C6          2.0498   -0.0680    2.5336 C.ar      1 <0>         0.0000
      7 C7         -0.1849    0.0697   -2.4016 C.3       1 <0>         0.0000
      8 C8         -3.2760   -0.4393    0.4984 C.3       1 <0>         0.0000
      9 C9          1.0649    0.6361   -1.7621 C.3       1 <0>         0.0000
     10 C10        -1.8528    0.0243    0.7248 C.3       1 <0>         0.0000
     11 N1          5.7228    1.0124    4.2837 N.pl3     1 <0>         0.0000
     12 O1          6.6845    0.2085    4.2248 O.3       1 <0>         0.0000
     13 O2          5.8220    2.1284    4.8488 O.2       1 <0>         0.0000
     14 O3          1.4463   -1.9247   -0.1105 O.2       1 <0>         0.0000
     15 O4          0.8556   -0.4191    1.9646 O.3       1 <0>         0.0000
     16 O5          0.8996    0.6457   -0.3547 O.3       1 <0>         0.0000
     17 O6         -0.9623   -0.9855    0.2818 O.3       1 <0>         0.0000
     18 P1          0.6399   -0.7644    0.4012 P.3       1 <0>         0.0000
     19 H1          5.1859   -1.2810    3.0109 H         1 <0>         0.0000
     20 H2          3.4919    2.4914    4.2375 H         1 <0>         0.0000
     21 H3          3.0342   -1.9094    1.9879 H         1 <0>         0.0000
     22 H4          1.3441    1.8554    3.2120 H         1 <0>         0.0000
     23 H5         -0.3658   -0.9547   -2.0645 H         1 <0>         0.0000
     24 H6         -1.0574    0.6829   -2.1532 H         1 <0>         0.0000
     25 H7         -0.0948    0.0718   -3.4929 H         1 <0>         0.0000
     26 H8         -3.4612   -0.6268   -0.5629 H         1 <0>         0.0000
     27 H9         -3.4768   -1.3576    1.0600 H         1 <0>         0.0000
     28 H10        -3.9880    0.3131    0.8537 H         1 <0>         0.0000
     29 H11         1.2400    1.6607   -2.1034 H         1 <0>         0.0000
     30 H12         1.9355    0.0218   -2.0106 H         1 <0>         0.0000
     31 H13        -1.6742    0.2100    1.7881 H         1 <0>         0.0000
     32 H14        -1.6537    0.9414    0.1624 H         1 <0>         0.0000
@<TRIPOS>BOND
     1    1    3 ar
     2    1    5 ar
     3    2    4 ar
     4    2    5 ar
     5    3    6 ar
     6    4    6 ar
     7    5   11 1
     8    6   15 1
     9    7    9 1
    10    8   10 1
    11    9   16 1
    12   10   17 1
    13   11   12 1
    14   11   13 2
    15   14   18 2
    16   15   18 1
    17   16   18 1
    18   17   18 1
    19    1   19 1
    20    2   20 1
    21    3   21 1
    22    4   22 1
    23    7   23 1
    24    7   24 1
    25    7   25 1
    26    8   26 1
    27    8   27 1
    28    8   28 1
    29    9   29 1
    30    9   30 1
    31   10   31 1
    32   10   32 1
@<TRIPOS>MOLECULE
*****
   32    32     0     0     0
SMALL
NO_CHARGES

@<TRIPOS>ATOM
      1 C1          4.2253    0.9687    2.3591 C.ar      1 <0>         0.0000
      2 C2          2.8157    1.7809    4.1453 C.ar      1 <0>         0.0000
      3 C3          3.1513    0.2457    1.8402 C.ar      1 <0>         0.0000
      4 C4          1.7417    1.0578    3.6264 C.ar      1 <0>         0.0000
      5 C5          4.0576    1.7363    3.5117 C.ar      1 <0>         0.0000
      6 C6          1.9095    0.2902    2.4738 C.ar      1 <0>         0.0000
      7 C7         -0.1849    0.0697   -2.4016 C.3       1 <0>         0.0000
      8 C8         -3.0270   -2.1796    0.3797 C.3       1 <0>         0.0000
      9 C9          1.0649    0.6361   -1.7621 C.3       1 <0>         0.0000
     10 C10        -1.5270   -2.2533    0.5694 C.3       1 <0>         0.0000
     11 N1          5.1508    2.4723    4.0403 N.pl3     1 <0>         0.0000
     12 O1          6.2596    2.4186    3.4553 O.3       1 <0>         0.0000
     13 O2          4.9784    3.1560    5.0783 O.2       1 <0>         0.0000
     14 O3          1.4463   -1.9247   -0.1105 O.2       1 <0>         0.0000
     15 O4          0.8556   -0.4191    1.9646 O.3       1 <0>         0.0000
     16 O5          0.8996    0.6457   -0.3547 O.3       1 <0>         0.0000
     17 O6         -0.9623   -0.9855    0.2818 O.3       1 <0>         0.0000
     18 P1          0.6399   -0.7644    0.4012 P.3       1 <0>         0.0000
     19 H1          5.1879    0.9256    1.8553 H         1 <0>         0.0000
     20 H2          2.6711    2.3746    5.0446 H         1 <0>         0.0000
     21 H3          3.2881   -0.3502    0.9419 H         1 <0>         0.0000
     22 H4          0.7768    1.0962    4.1246 H         1 <0>         0.0000
     23 H5         -0.3658   -0.9547   -2.0645 H         1 <0>         0.0000
     24 H6         -1.0574    0.6829   -2.1532 H         1 <0>         0.0000
     25 H7         -0.0948    0.0718   -3.4929 H         1 <0>         0.0000
     26 H8         -3.4695   -1.4398    1.0526 H         1 <0>         0.0000
     27 H9         -3.2728   -1.9101   -0.6527 H         1 <0>         0.0000
     28 H10        -3.4887   -3.1536    0.5729 H         1 <0>         0.0000
     29 H11         1.2400    1.6607   -2.1034 H         1 <0>         0.0000
     30 H12         1.9355    0.0218   -2.0106 H         1 <0>         0.0000
     31 H13        -1.0907   -2.9950   -0.1065 H         1 <0>         0.0000
     32 H14        -1.2832   -2.5218    1.6016 H         1 <0>         0.0000
@<TRIPOS>BOND
     1    1    3 ar
     2    1    5 ar
     3    2    4 ar
     4    2    5 ar
     5    3    6 ar
     6    4    6 ar
     7    5   11 1
     8    6   15 1
     9    7    9 1
    10    8   10 1
    11    9   16 1
    12   10   17 1
    13   11   12 1
    14   11   13 2
    15   14   18 2
    16   15   18 1
    17   16   18 1
    18   17   18 1
    19    1   19 1
    20    2   20 1
    21    3   21 1
    22    4   22 1
    23    7   23 1
    24    7   24 1
    25    7   25 1
    26    8   26 1
    27    8   27 1
    28    8   28 1
    29    9   29 1
    30    9   30 1
    31   10   31 1
    32   10   32 1
@<TRIPOS>MOLECULE
*****
   32    32     0     0     0
SMALL
NO_CHARGES

@<TRIPOS>ATOM
      1 C1          4.3277    0.3460    2.8569 C.ar      1 <0>         0.0000
      2 C2          3.4684   -1.3314    4.3685 C.ar      1 <0>         0.0000
      3 C3          3.1015    0.3756    2.1927 C.ar      1 <0>         0.0000
      4 C4          2.2422   -1.3018    3.7042 C.ar      1 <0>         0.0000
      5 C5          4.5111   -0.5076    3.9448 C.ar      1 <0>         0.0000
      6 C6          2.0588   -0.4483    2.6163 C.ar      1 <0>         0.0000
      7 C7          0.5787    2.9742   -0.7699 C.3       1 <0>         0.0000
      8 C8         -1.0725   -3.1717    1.2340 C.3       1 <0>         0.0000
      9 C9          0.1738    1.7847    0.0744 C.3       1 <0>         0.0000
     10 C10        -1.6441   -1.7700    1.2455 C.3       1 <0>         0.0000
     11 N1          5.7593   -0.5381    4.6211 N.pl3     1 <0>         0.0000
     12 O1          6.6846    0.2109    4.2241 O.3       1 <0>         0.0000
     13 O2          5.9033   -1.3135    5.5971 O.2       1 <0>         0.0000
     14 O3          1.4463   -1.9247   -0.1105 O.2       1 <0>         0.0000
     15 O4          0.8556   -0.4191    1.9646 O.3       1 <0>         0.0000
     16 O5          0.8996    0.6457   -0.3547 O.3       1 <0>         0.0000
     17 O6         -0.9623   -0.9855    0.2818 O.3       1 <0>         0.0000
     18 P1          0.6399   -0.7644    0.4012 P.3       1 <0>         0.0000
     19 H1          5.1321    0.9936    2.5167 H         1 <0>         0.0000
     20 H2          3.5978   -2.0019    5.2146 H         1 <0>         0.0000
     21 H3          2.9645    1.0428    1.3460 H         1 <0>         0.0000
     22 H4          1.4338   -1.9463    4.0387 H         1 <0>         0.0000
     23 H5          1.6473    3.1815   -0.6651 H         1 <0>         0.0000
     24 H6          0.3559    2.7916   -1.8263 H         1 <0>         0.0000
     25 H7          0.0154    3.8660   -0.4754 H         1 <0>         0.0000
     26 H8         -1.1994   -3.6368    0.2525 H         1 <0>         0.0000
     27 H9         -0.0063   -3.1559    1.4826 H         1 <0>         0.0000
     28 H10        -1.5656   -3.7956    1.9869 H         1 <0>         0.0000
     29 H11        -0.8959    1.5828   -0.0350 H         1 <0>         0.0000
     30 H12         0.3978    1.9686    1.1294 H         1 <0>         0.0000
     31 H13        -1.5139   -1.3105    2.2299 H         1 <0>         0.0000
     32 H14        -2.7092   -1.7875    0.9962 H         1 <0>         0.0000
@<TRIPOS>BOND
     1    1    3 ar
     2    1    5 ar
     3    2    4 ar
     4    2    5 ar
     5    3    6 ar
     6    4    6 ar
     7    5   11 1
     8    6   15 1
     9    7    9 1
    10    8   10 1
    11    9   16 1
    12   10   17 1
    13   11   12 1
    14   11   13 2
    15   14   18 2
    16   15   18 1
    17   16   18 1
    18   17   18 1
    19    1   19 1
    20    2   20 1
    21    3   21 1
    22    4   22 1
    23    7   23 1
    24    7   24 1
    25    7   25 1
    26    8   26 1
    27    8   27 1
    28    8   28 1
    29    9   29 1
    30    9   30 1
    31   10   31 1
    32   10   32 1
@<TRIPOS>MOLECULE
*****
   32    32     0     0     0
SMALL
NO_CHARGES

@<TRIPOS>ATOM
      1 C1          4.3497   -0.5877    3.0599 C.ar      1 <0>         0.0000
      2 C2          3.4012    1.5255    3.7466 C.ar      1 <0>         0.0000
      3 C3          3.1326   -0.9456    2.4801 C.ar      1 <0>         0.0000
      4 C4          2.1841    1.1676    3.1668 C.ar      1 <0>         0.0000
      5 C5          4.4840    0.6478    3.6932 C.ar      1 <0>         0.0000
      6 C6          2.0498   -0.0680    2.5336 C.ar      1 <0>         0.0000
      7 C7          0.9532    2.1233   -2.2286 C.3       1 <0>         0.0000
      8 C8         -1.2055   -2.6228    2.0018 C.3       1 <0>         0.0000
      9 C9          0.6411    0.7228   -1.7459 C.3       1 <0>         0.0000
     10 C10        -1.5270   -2.2533    0.5694 C.3       1 <0>         0.0000
     11 N1          5.7228    1.0124    4.2837 N.pl3     1 <0>         0.0000
     12 O1          6.6845    0.2085    4.2248 O.3       1 <0>         0.0000
     13 O2          5.8220    2.1284    4.8488 O.2       1 <0>         0.0000
     14 O3          1.4463   -1.9247   -0.1105 O.2       1 <0>         0.0000
     15 O4          0.8556   -0.4191    1.9646 O.3       1 <0>         0.0000
     16 O5          0.8996    0.6457   -0.3547 O.3       1 <0>         0.0000
     17 O6         -0.9623   -0.9855    0.2818 O.3       1 <0>         0.0000
     18 P1          0.6399   -0.7644    0.4012 P.3       1 <0>         0.0000
     19 H1          5.1859   -1.2810    3.0109 H         1 <0>         0.0000
     20 H2          3.4919    2.4914    4.2375 H         1 <0>         0.0000
     21 H3          3.0342   -1.9094    1.9879 H         1 <0>         0.0000
     22 H4          1.3441    1.8554    3.2120 H         1 <0>         0.0000
     23 H5          0.3289    2.8607   -1.7163 H         1 <0>         0.0000
     24 H6          2.0058    2.3671   -2.0514 H         1 <0>         0.0000
     25 H7          0.7845    2.2061   -3.3074 H         1 <0>         0.0000
     26 H8         -0.1245   -2.6789    2.1571 H         1 <0>         0.0000
     27 H9         -1.6244   -1.8850    2.6940 H         1 <0>         0.0000
     28 H10        -1.6501   -3.5897    2.2599 H         1 <0>         0.0000
     29 H11         1.2688   -0.0097   -2.2621 H         1 <0>         0.0000
     30 H12        -0.4111    0.4812   -1.9229 H         1 <0>         0.0000
     31 H13        -2.6095   -2.1989    0.4208 H         1 <0>         0.0000
     32 H14        -1.1071   -2.9910   -0.1209 H         1 <0>         0.0000
@<TRIPOS>BOND
     1    1    3 ar
     2    1    5 ar
     3    2    4 ar
     4    2    5 ar
     5    3    6 ar
     6    4    6 ar
     7    5   11 1
     8    6   15 1
     9    7    9 1
    10    8   10 1
    11    9   16 1
    12   10   17 1
    13   11   12 1
    14   11   13 2
    15   14   18 2
    16   15   18 1
    17   16   18 1
    18   17   18 1
    19    1   19 1
    20    2   20 1
    21    3   21 1
    22    4   22 1
    23    7   23 1
    24    7   24 1
    25    7   25 1
    26    8   26 1
    27    8   27 1
    28    8   28 1
    29    9   29 1
    30    9   30 1
    31   10   31 1
    32   10   32 1
@<TRIPOS>MOLECULE
*****
   32    32     0     0     0
SMALL
NO_CHARGES

@<TRIPOS>ATOM
      1 C1          0.0913   -3.2019    4.2248 C.ar      1 <0>         0.0000
      2 C2          2.2805   -2.3264    4.7519 C.ar      1 <0>         0.0000
      3 C3         -0.0418   -2.2568    3.2077 C.ar      1 <0>         0.0000
      4 C4          2.1474   -1.3813    3.7348 C.ar      1 <0>         0.0000
      5 C5          1.2524   -3.2367    4.9970 C.ar      1 <0>         0.0000
      6 C6          0.9862   -1.3465    2.9627 C.ar      1 <0>         0.0000
      7 C7         -0.1849    0.0697   -2.4016 C.3       1 <0>         0.0000
      8 C8         -3.2760   -0.4393    0.4984 C.3       1 <0>         0.0000
      9 C9          1.0649    0.6361   -1.7621 C.3       1 <0>         0.0000
     10 C10        -1.8528    0.0243    0.7248 C.3       1 <0>         0.0000
     11 N1          1.3882   -4.1986    6.0327 N.pl3     1 <0>         0.0000
     12 O1          0.4517   -5.0085    6.2370 O.3       1 <0>         0.0000
     13 O2          2.4408   -4.2124    6.7157 O.2       1 <0>         0.0000
     14 O3          1.4463   -1.9247   -0.1105 O.2       1 <0>         0.0000
     15 O4          0.8556   -0.4191    1.9646 O.3       1 <0>         0.0000
     16 O5          0.8996    0.6457   -0.3547 O.3       1 <0>         0.0000
     17 O6         -0.9623   -0.9855    0.2818 O.3       1 <0>         0.0000
     18 P1          0.6399   -0.7644    0.4012 P.3       1 <0>         0.0000
     19 H1         -0.7174   -3.9059    4.4052 H         1 <0>         0.0000
     20 H2          3.1907   -2.3420    5.3465 H         1 <0>         0.0000
     21 H3         -0.9486   -2.2348    2.6093 H         1 <0>         0.0000
     22 H4          2.9516   -0.6745    3.5489 H         1 <0>         0.0000
     23 H5         -0.3658   -0.9547   -2.0645 H         1 <0>         0.0000
     24 H6         -1.0574    0.6829   -2.1532 H         1 <0>         0.0000
     25 H7         -0.0948    0.0718   -3.4929 H         1 <0>         0.0000
     26 H8         -3.4612   -0.6268   -0.5629 H         1 <0>         0.0000
     27 H9         -3.4768   -1.3576    1.0600 H         1 <0>         0.0000
     28 H10        -3.9880    0.3131    0.8537 H         1 <0>         0.0000
     29 H11         1.2400    1.6607   -2.1034 H         1 <0>         0.0000
     30 H12         1.9355    0.0218   -2.0106 H         1 <0>         0.0000
     31 H13        -1.6742    0.2100    1.7881 H         1 <0>         0.0000
     32 H14        -1.6537    0.9414    0.1624 H         1 <0>         0.0000
@<TRIPOS>BOND
     1    1    3 ar
     2    1    5 ar
     3    2    4 ar
     4    2    5 ar
     5    3    6 ar
     6    4    6 ar
     7    5   11 1
     8    6   15 1
     9    7    9 1
    10    8   10 1
    11    9   16 1
    12   10   17 1
    13   11   12 1
    14   11   13 2
    15   14   18 2
    16   15   18 1
    17   16   18 1
    18   17   18 1
    19    1   19 1
    20    2   20 1
    21    3   21 1
    22    4   22 1
    23    7   23 1
    24    7   24 1
    25    7   25 1
    26    8   26 1
    27    8   27 1
    28    8   28 1
    29    9   29 1
    30    9   30 1
    31   10   31 1
    32   10   32 1
@<TRIPOS>MOLECULE
*****
   32    32     0     0     0
SMALL
NO_CHARGES

@<TRIPOS>ATOM
      1 C1          4.3497   -0.5877    3.0599 C.ar      1 <0>         0.0000
      2 C2          3.4012    1.5255    3.7466 C.ar      1 <0>         0.0000
      3 C3          3.1326   -0.9456    2.4801 C.ar      1 <0>         0.0000
      4 C4          2.1841    1.1676    3.1668 C.ar      1 <0>         0.0000
      5 C5          4.4840    0.6478    3.6932 C.ar      1 <0>         0.0000
      6 C6          2.0498   -0.0680    2.5336 C.ar      1 <0>         0.0000
      7 C7          0.5787    2.9742   -0.7699 C.3       1 <0>         0.0000
      8 C8         -1.1543   -0.7830   -2.0890 C.3       1 <0>         0.0000
      9 C9          0.1738    1.7847    0.0744 C.3       1 <0>         0.0000
     10 C10        -1.5090   -1.6064   -0.8692 C.3       1 <0>         0.0000
     11 N1          5.7228    1.0124    4.2837 N.pl3     1 <0>         0.0000
     12 O1          6.6845    0.2085    4.2248 O.3       1 <0>         0.0000
     13 O2          5.8220    2.1284    4.8488 O.2       1 <0>         0.0000
     14 O3          1.4463   -1.9247   -0.1105 O.2       1 <0>         0.0000
     15 O4          0.8556   -0.4191    1.9646 O.3       1 <0>         0.0000
     16 O5          0.8996    0.6457   -0.3547 O.3       1 <0>         0.0000
     17 O6         -0.9623   -0.9855    0.2818 O.3       1 <0>         0.0000
     18 P1          0.6399   -0.7644    0.4012 P.3       1 <0>         0.0000
     19 H1          5.1859   -1.2810    3.0109 H         1 <0>         0.0000
     20 H2          3.4919    2.4914    4.2375 H         1 <0>         0.0000
     21 H3          3.0342   -1.9094    1.9879 H         1 <0>         0.0000
     22 H4          1.3441    1.8554    3.2120 H         1 <0>         0.0000
     23 H5          1.6473    3.1815   -0.6651 H         1 <0>         0.0000
     24 H6          0.3559    2.7916   -1.8263 H         1 <0>         0.0000
     25 H7          0.0154    3.8660   -0.4754 H         1 <0>         0.0000
     26 H8         -1.5640    0.2279   -2.0101 H         1 <0>         0.0000
     27 H9         -0.0678   -0.7160   -2.2070 H         1 <0>         0.0000
     28 H10        -1.5447   -1.2523   -2.9981 H         1 <0>         0.0000
     29 H11        -0.8959    1.5828   -0.0350 H         1 <0>         0.0000
     30 H12         0.3978    1.9686    1.1294 H         1 <0>         0.0000
     31 H13        -1.0963   -2.6161   -0.9545 H         1 <0>         0.0000
     32 H14        -2.5948   -1.6716   -0.7524 H         1 <0>         0.0000
@<TRIPOS>BOND
     1    1    3 ar
     2    1    5 ar
     3    2    4 ar
     4    2    5 ar
     5    3    6 ar
     6    4    6 ar
     7    5   11 1
     8    6   15 1
     9    7    9 1
    10    8   10 1
    11    9   16 1
    12   10   17 1
    13   11   12 1
    14   11   13 2
    15   14   18 2
    16   15   18 1
    17   16   18 1
    18   17   18 1
    19    1   19 1
    20    2   20 1
    21    3   21 1
    22    4   22 1
    23    7   23 1
    24    7   24 1
    25    7   25 1
    26    8   26 1
    27    8   27 1
    28    8   28 1
    29    9   29 1
    30    9   30 1
    31   10   31 1
    32   10   32 1
@<TRIPOS>MOLECULE
*****
   32    32     0     0     0
SMALL
NO_CHARGES

@<TRIPOS>ATOM
      1 C1          4.4166    0.3709    2.3278 C.ar      1 <0>         0.0000
      2 C2          3.3342    0.5671    4.4788 C.ar      1 <0>         0.0000
      3 C3          3.1996    0.0129    1.7480 C.ar      1 <0>         0.0000
      4 C4          2.1171    0.2092    3.8990 C.ar      1 <0>         0.0000
      5 C5          4.4840    0.6480    3.6932 C.ar      1 <0>         0.0000
      6 C6          2.0498   -0.0680    2.5336 C.ar      1 <0>         0.0000
      7 C7          1.2927    2.0538   -2.2415 C.3       1 <0>         0.0000
      8 C8         -1.6472    1.2515    0.7566 C.3       1 <0>         0.0000
      9 C9          1.0649    0.6361   -1.7621 C.3       1 <0>         0.0000
     10 C10        -1.8462   -0.2145    1.0776 C.3       1 <0>         0.0000
     11 N1          5.7228    1.0122    4.2838 N.pl3     1 <0>         0.0000
     12 O1          6.7454    1.0791    3.5597 O.3       1 <0>         0.0000
     13 O2          5.7614    1.2570    5.5140 O.2       1 <0>         0.0000
     14 O3          1.4463   -1.9247   -0.1105 O.2       1 <0>         0.0000
     15 O4          0.8556   -0.4191    1.9646 O.3       1 <0>         0.0000
     16 O5          0.8996    0.6457   -0.3547 O.3       1 <0>         0.0000
     17 O6         -0.9623   -0.9855    0.2818 O.3       1 <0>         0.0000
     18 P1          0.6399   -0.7644    0.4012 P.3       1 <0>         0.0000
     19 H1          5.3052    0.4305    1.7041 H         1 <0>         0.0000
     20 H2          3.3725    0.7799    5.5444 H         1 <0>         0.0000
     21 H3          3.1533   -0.2015    0.6837 H         1 <0>         0.0000
     22 H4          1.2249    0.1475    4.5162 H         1 <0>         0.0000
     23 H5          0.4390    2.6911   -1.9948 H         1 <0>         0.0000
     24 H6          2.1932    2.4762   -1.7836 H         1 <0>         0.0000
     25 H7          1.4473    2.0744   -3.3254 H         1 <0>         0.0000
     26 H8         -0.6215    1.5626    0.9730 H         1 <0>         0.0000
     27 H9         -1.8610    1.4479   -0.2991 H         1 <0>         0.0000
     28 H10        -2.3351    1.8712    1.3413 H         1 <0>         0.0000
     29 H11         1.9223    0.0041   -2.0120 H         1 <0>         0.0000
     30 H12         0.1644    0.2159   -2.2200 H         1 <0>         0.0000
     31 H13        -2.8740   -0.5192    0.8590 H         1 <0>         0.0000
     32 H14        -1.6314   -0.4092    2.1326 H         1 <0>         0.0000
@<TRIPOS>BOND
     1    1    3 ar
     2    1    5 ar
     3    2    4 ar
     4    2    5 ar
     5    3    6 ar
     6    4    6 ar
     7    5   11 1
     8    6   15 1
     9    7    9 1
    10    8   10 1
    11    9   16 1
    12   10   17 1
    13   11   12 1
    14   11   13 2
    15   14   18 2
    16   15   18 1
    17   16   18 1
    18   17   18 1
    19    1   19 1
    20    2   20 1
    21    3   21 1
    22    4   22 1
    23    7   23 1
    24    7   24 1
    25    7   25 1
    26    8   26 1
    27    8   27 1
    28    8   28 1
    29    9   29 1
    30    9   30 1
    31   10   31 1
    32   10   32 1
@<TRIPOS>MOLECULE
*****
   32    32     0     0     0
SMALL
NO_CHARGES

@<TRIPOS>ATOM
      1 C1          2.1644   -3.2146    3.9417 C.ar      1 <0>         0.0000
      2 C2          0.2076   -2.3134    5.0353 C.ar      1 <0>         0.0000
      3 C3          2.0312   -2.2696    2.9245 C.ar      1 <0>         0.0000
      4 C4          0.0744   -1.3684    4.0181 C.ar      1 <0>         0.0000
      5 C5          1.2526   -3.2366    4.9971 C.ar      1 <0>         0.0000
      6 C6          0.9862   -1.3465    2.9627 C.ar      1 <0>         0.0000
      7 C7          3.0787    1.0430    0.5347 C.3       1 <0>         0.0000
      8 C8         -3.2760   -0.4393    0.4984 C.3       1 <0>         0.0000
      9 C9          2.2277    0.9829   -0.7159 C.3       1 <0>         0.0000
     10 C10        -1.8528    0.0243    0.7248 C.3       1 <0>         0.0000
     11 N1          1.3878   -4.1986    6.0327 N.pl3     1 <0>         0.0000
     12 O1          2.3347   -5.0203    5.9796 O.3       1 <0>         0.0000
     13 O2          0.5564   -4.2012    6.9726 O.2       1 <0>         0.0000
     14 O3          1.4463   -1.9247   -0.1105 O.2       1 <0>         0.0000
     15 O4          0.8556   -0.4191    1.9646 O.3       1 <0>         0.0000
     16 O5          0.8996    0.6457   -0.3547 O.3       1 <0>         0.0000
     17 O6         -0.9623   -0.9855    0.2818 O.3       1 <0>         0.0000
     18 P1          0.6399   -0.7644    0.4012 P.3       1 <0>         0.0000
     19 H1          2.9837   -3.9282    3.9001 H         1 <0>         0.0000
     20 H2         -0.5104   -2.3196    5.8517 H         1 <0>         0.0000
     21 H3          2.7448   -2.2572    2.1052 H         1 <0>         0.0000
     22 H4         -0.7419   -0.6521    4.0531 H         1 <0>         0.0000
     23 H5          2.7021    1.8013    1.2268 H         1 <0>         0.0000
     24 H6          3.0869    0.0732    1.0430 H         1 <0>         0.0000
     25 H7          4.1180    1.2792    0.2832 H         1 <0>         0.0000
     26 H8         -3.4612   -0.6268   -0.5629 H         1 <0>         0.0000
     27 H9         -3.4768   -1.3576    1.0600 H         1 <0>         0.0000
     28 H10        -3.9880    0.3131    0.8537 H         1 <0>         0.0000
     29 H11         2.6097    0.2226   -1.4038 H         1 <0>         0.0000
     30 H12         2.2200    1.9528   -1.2221 H         1 <0>         0.0000
     31 H13        -1.6742    0.2100    1.7881 H         1 <0>         0.0000
     32 H14        -1.6537    0.9414    0.1624 H         1 <0>         0.0000
@<TRIPOS>BOND
     1    1    3 ar
     2    1    5 ar
     3    2    4 ar
     4    2    5 ar
     5    3    6 ar
     6    4    6 ar
     7    5   11 1
     8    6   15 1
     9    7    9 1
    10    8   10 1
    11    9   16 1
    12   10   17 1
    13   11   12 1
    14   11   13 2
    15   14   18 2
    16   15   18 1
    17   16   18 1
    18   17   18 1
    19    1   19 1
    20    2   20 1
    21    3   21 1
    22    4   22 1
    23    7   23 1
    24    7   24 1
    25    7   25 1
    26    8   26 1
    27    8   27 1
    28    8   28 1
    29    9   29 1
    30    9   30 1
    31   10   31 1
    32   10   32 1
@<TRIPOS>MOLECULE
*****
   32    32     0     0     0
SMALL
NO_CHARGES

@<TRIPOS>ATOM
      1 C1         -1.7248   -1.8069    4.1673 C.ar      1 <0>         0.0000
      2 C2          0.4553   -2.4033    5.0208 C.ar      1 <0>         0.0000
      3 C3         -1.1241   -1.1274    3.1076 C.ar      1 <0>         0.0000
      4 C4          1.0560   -1.7238    3.9610 C.ar      1 <0>         0.0000
      5 C5         -0.9351   -2.4448    5.1240 C.ar      1 <0>         0.0000
      6 C6          0.2663   -1.0858    3.0045 C.ar      1 <0>         0.0000
      7 C7          0.5787    2.9742   -0.7699 C.3       1 <0>         0.0000
      8 C8         -3.0494   -1.3745   -0.8096 C.3       1 <0>         0.0000
      9 C9          0.1738    1.7847    0.0744 C.3       1 <0>         0.0000
     10 C10        -1.5563   -1.1996   -0.9873 C.3       1 <0>         0.0000
     11 N1         -1.5463   -3.1365    6.2030 N.pl3     1 <0>         0.0000
     12 O1         -2.7986   -3.1618    6.2776 O.3       1 <0>         0.0000
     13 O2         -0.8174   -3.7032    7.0528 O.2       1 <0>         0.0000
     14 O3          1.4463   -1.9247   -0.1105 O.2       1 <0>         0.0000
     15 O4          0.8556   -0.4191    1.9646 O.3       1 <0>         0.0000
     16 O5          0.8996    0.6457   -0.3547 O.3       1 <0>         0.0000
     17 O6         -0.9623   -0.9855    0.2818 O.3       1 <0>         0.0000
     18 P1          0.6399   -0.7644    0.4012 P.3       1 <0>         0.0000
     19 H1         -2.8096   -1.8319    4.2358 H         1 <0>         0.0000
     20 H2          1.0828   -2.8957    5.7596 H         1 <0>         0.0000
     21 H3         -1.7446   -0.6326    2.3654 H         1 <0>         0.0000
     22 H4          2.1397   -1.6946    3.8862 H         1 <0>         0.0000
     23 H5          1.6473    3.1815   -0.6651 H         1 <0>         0.0000
     24 H6          0.3559    2.7916   -1.8263 H         1 <0>         0.0000
     25 H7          0.0154    3.8660   -0.4754 H         1 <0>         0.0000
     26 H8         -3.2684   -2.2356   -0.1721 H         1 <0>         0.0000
     27 H9         -3.4920   -0.4798   -0.3596 H         1 <0>         0.0000
     28 H10        -3.5390   -1.5187   -1.7785 H         1 <0>         0.0000
     29 H11        -0.8959    1.5828   -0.0350 H         1 <0>         0.0000
     30 H12         0.3978    1.9686    1.1294 H         1 <0>         0.0000
     31 H13        -1.3442   -0.3369   -1.6258 H         1 <0>         0.0000
     32 H14        -1.1155   -2.0947   -1.4362 H         1 <0>         0.0000
@<TRIPOS>BOND
     1    1    3 ar
     2    1    5 ar
     3    2    4 ar
     4    2    5 ar
     5    3    6 ar
     6    4    6 ar
     7    5   11 1
     8    6   15 1
     9    7    9 1
    10    8   10 1
    11    9   16 1
    12   10   17 1
    13   11   12 1
    14   11   13 2
    15   14   18 2
    16   15   18 1
    17   16   18 1
    18   17   18 1
    19    1   19 1
    20    2   20 1
    21    3   21 1
    22    4   22 1
    23    7   23 1
    24    7   24 1
    25    7   25 1
    26    8   26 1
    27    8   27 1
    28    8   28 1
    29    9   29 1
    30    9   30 1
    31   10   31 1
    32   10   32 1
@<TRIPOS>MOLECULE
*****
   32    32     0     0     0
SMALL
NO_CHARGES

@<TRIPOS>ATOM
      1 C1          4.0151   -1.6648    3.3439 C.ar      1 <0>         0.0000
      2 C2          3.7811    0.6790    3.8811 C.ar      1 <0>         0.0000
      3 C3          2.7889   -1.6351    2.6798 C.ar      1 <0>         0.0000
      4 C4          2.5548    0.7088    3.2170 C.ar      1 <0>         0.0000
      5 C5          4.5112   -0.5077    3.9447 C.ar      1 <0>         0.0000
      6 C6          2.0588   -0.4483    2.6163 C.ar      1 <0>         0.0000
      7 C7          0.5787    2.9742   -0.7699 C.3       1 <0>         0.0000
      8 C8         -1.2055   -2.6228    2.0018 C.3       1 <0>         0.0000
      9 C9          0.1738    1.7847    0.0744 C.3       1 <0>         0.0000
     10 C10        -1.5270   -2.2533    0.5694 C.3       1 <0>         0.0000
     11 N1          5.7594   -0.5377    4.6210 N.pl3     1 <0>         0.0000
     12 O1          6.4005   -1.6154    4.6668 O.3       1 <0>         0.0000
     13 O2          6.1871    0.5143    5.1549 O.2       1 <0>         0.0000
     14 O3          1.4463   -1.9247   -0.1105 O.2       1 <0>         0.0000
     15 O4          0.8556   -0.4191    1.9646 O.3       1 <0>         0.0000
     16 O5          0.8996    0.6457   -0.3547 O.3       1 <0>         0.0000
     17 O6         -0.9623   -0.9855    0.2818 O.3       1 <0>         0.0000
     18 P1          0.6399   -0.7644    0.4012 P.3       1 <0>         0.0000
     19 H1          4.5743   -2.5963    3.3858 H         1 <0>         0.0000
     20 H2          4.1556    1.5881    4.3454 H         1 <0>         0.0000
     21 H3          2.4078   -2.5395    2.2135 H         1 <0>         0.0000
     22 H4          1.9905    1.6362    3.1712 H         1 <0>         0.0000
     23 H5          1.6473    3.1815   -0.6651 H         1 <0>         0.0000
     24 H6          0.3559    2.7916   -1.8263 H         1 <0>         0.0000
     25 H7          0.0154    3.8660   -0.4754 H         1 <0>         0.0000
     26 H8         -0.1245   -2.6789    2.1571 H         1 <0>         0.0000
     27 H9         -1.6244   -1.8850    2.6940 H         1 <0>         0.0000
     28 H10        -1.6501   -3.5897    2.2599 H         1 <0>         0.0000
     29 H11        -0.8959    1.5828   -0.0350 H         1 <0>         0.0000
     30 H12         0.3978    1.9686    1.1294 H         1 <0>         0.0000
     31 H13        -2.6095   -2.1989    0.4208 H         1 <0>         0.0000
     32 H14        -1.1071   -2.9910   -0.1209 H         1 <0>         0.0000
@<TRIPOS>BOND
     1    1    3 ar
     2    1    5 ar
     3    2    4 ar
     4    2    5 ar
     5    3    6 ar
     6    4    6 ar
     7    5   11 1
     8    6   15 1
     9    7    9 1
    10    8   10 1
    11    9   16 1
    12   10   17 1
    13   11   12 1
    14   11   13 2
    15   14   18 2
    16   15   18 1
    17   16   18 1
    18   17   18 1
    19    1   19 1
    20    2   20 1
    21    3   21 1
    22    4   22 1
    23    7   23 1
    24    7   24 1
    25    7   25 1
    26    8   26 1
    27    8   27 1
    28    8   28 1
    29    9   29 1
    30    9   30 1
    31   10   31 1
    32   10   32 1
@<TRIPOS>MOLECULE
*****
   32    32     0     0     0
SMALL
NO_CHARGES

@<TRIPOS>ATOM
      1 C1          1.0277   -3.3697    4.1328 C.ar      1 <0>         0.0000
      2 C2         -0.5847   -1.8125    5.0340 C.ar      1 <0>         0.0000
      3 C3          1.2833   -2.4944    3.0774 C.ar      1 <0>         0.0000
      4 C4         -0.3292   -0.9371    3.9785 C.ar      1 <0>         0.0000
      5 C5          0.0937   -3.0288    5.1112 C.ar      1 <0>         0.0000
      6 C6          0.6048   -1.2781    3.0002 C.ar      1 <0>         0.0000
      7 C7          2.2245    2.3317   -1.4032 C.3       1 <0>         0.0000
      8 C8         -1.1543   -0.7830   -2.0890 C.3       1 <0>         0.0000
      9 C9          2.2277    0.9829   -0.7159 C.3       1 <0>         0.0000
     10 C10        -1.5090   -1.6064   -0.8692 C.3       1 <0>         0.0000
     11 N1         -0.1668   -3.9198    6.1856 N.pl3     1 <0>         0.0000
     12 O1          0.4541   -5.0090    6.2366 O.3       1 <0>         0.0000
     13 O2         -1.0112   -3.5938    7.0548 O.2       1 <0>         0.0000
     14 O3          1.4463   -1.9247   -0.1105 O.2       1 <0>         0.0000
     15 O4          0.8556   -0.4191    1.9646 O.3       1 <0>         0.0000
     16 O5          0.8996    0.6457   -0.3547 O.3       1 <0>         0.0000
     17 O6         -0.9623   -0.9855    0.2818 O.3       1 <0>         0.0000
     18 P1          0.6399   -0.7644    0.4012 P.3       1 <0>         0.0000
     19 H1          1.5637   -4.3144    4.1813 H         1 <0>         0.0000
     20 H2         -1.3156   -1.5344    5.7894 H         1 <0>         0.0000
     21 H3          2.0122   -2.7653    2.3185 H         1 <0>         0.0000
     22 H4         -0.8612    0.0088    3.9236 H         1 <0>         0.0000
     23 H5          1.6123    2.3067   -2.3089 H         1 <0>         0.0000
     24 H6          1.8340    3.1051   -0.7337 H         1 <0>         0.0000
     25 H7          3.2431    2.6294   -1.6734 H         1 <0>         0.0000
     26 H8         -1.5640    0.2279   -2.0101 H         1 <0>         0.0000
     27 H9         -0.0678   -0.7160   -2.2070 H         1 <0>         0.0000
     28 H10        -1.5447   -1.2523   -2.9981 H         1 <0>         0.0000
     29 H11         2.8418    1.0147    0.1891 H         1 <0>         0.0000
     30 H12         2.6174    0.2112   -1.3864 H         1 <0>         0.0000
     31 H13        -1.0963   -2.6161   -0.9545 H         1 <0>         0.0000
     32 H14        -2.5948   -1.6716   -0.7524 H         1 <0>         0.0000
@<TRIPOS>BOND
     1    1    3 ar
     2    1    5 ar
     3    2    4 ar
     4    2    5 ar
     5    3    6 ar
     6    4    6 ar
     7    5   11 1
     8    6   15 1
     9    7    9 1
    10    8   10 1
    11    9   16 1
    12   10   17 1
    13   11   12 1
    14   11   13 2
    15   14   18 2
    16   15   18 1
    17   16   18 1
    18   17   18 1
    19    1   19 1
    20    2   20 1
    21    3   21 1
    22    4   22 1
    23    7   23 1
    24    7   24 1
    25    7   25 1
    26    8   26 1
    27    8   27 1
    28    8   28 1
    29    9   29 1
    30    9   30 1
    31   10   31 1
    32   10   32 1
@<TRIPOS>MOLECULE
*****
   32    32     0     0     0
SMALL
NO_CHARGES

@<TRIPOS>ATOM
      1 C1         -1.0579    2.4828    3.1281 C.ar      1 <0>         0.0000
      2 C2          1.2555    2.7438    3.7738 C.ar      1 <0>         0.0000
      3 C3         -0.7528    1.2607    2.5290 C.ar      1 <0>         0.0000
      4 C4          1.5606    1.5216    3.1747 C.ar      1 <0>         0.0000
      5 C5         -0.0537    3.2244    3.7505 C.ar      1 <0>         0.0000
      6 C6          0.5564    0.7801    2.5524 C.ar      1 <0>         0.0000
      7 C7          2.2086    2.4977   -1.0990 C.3       1 <0>         0.0000
      8 C8         -3.0680   -2.0405    0.6713 C.3       1 <0>         0.0000
      9 C9          2.2078    1.1900   -0.3364 C.3       1 <0>         0.0000
     10 C10        -1.5805   -2.0713    0.9510 C.3       1 <0>         0.0000
     11 N1         -0.3639    4.4687    4.3603 N.pl3     1 <0>         0.0000
     12 O1         -1.5478    4.8833    4.3282 O.3       1 <0>         0.0000
     13 O2          0.5545    5.1200    4.9143 O.2       1 <0>         0.0000
     14 O3          1.4463   -1.9247   -0.1105 O.2       1 <0>         0.0000
     15 O4          0.8556   -0.4191    1.9646 O.3       1 <0>         0.0000
     16 O5          0.8996    0.6457   -0.3547 O.3       1 <0>         0.0000
     17 O6         -0.9623   -0.9855    0.2818 O.3       1 <0>         0.0000
     18 P1          0.6399   -0.7644    0.4012 P.3       1 <0>         0.0000
     19 H1         -2.0825    2.8458    3.1031 H         1 <0>         0.0000
     20 H2          2.0481    3.3117    4.2550 H         1 <0>         0.0000
     21 H3         -1.5394    0.6873    2.0460 H         1 <0>         0.0000
     22 H4          2.5825    1.1526    3.1958 H         1 <0>         0.0000
     23 H5          1.9097    2.3428   -2.1395 H         1 <0>         0.0000
     24 H6          1.5219    3.2145   -0.6369 H         1 <0>         0.0000
     25 H7          3.2040    2.9539   -1.0817 H         1 <0>         0.0000
     26 H8         -3.5136   -1.1092    1.0317 H         1 <0>         0.0000
     27 H9         -3.2608   -2.1323   -0.4027 H         1 <0>         0.0000
     28 H10        -3.5696   -2.8836    1.1579 H         1 <0>         0.0000
     29 H11         2.5076    1.3519    0.7033 H         1 <0>         0.0000
     30 H12         2.8938    0.4747   -0.7999 H         1 <0>         0.0000
     31 H13        -1.1411   -3.0052    0.5880 H         1 <0>         0.0000
     32 H14        -1.3896   -1.9787    2.0243 H         1 <0>         0.0000
@<TRIPOS>BOND
     1    1    3 ar
     2    1    5 ar
     3    2    4 ar
     4    2    5 ar
     5    3    6 ar
     6    4    6 ar
     7    5   11 1
     8    6   15 1
     9    7    9 1
    10    8   10 1
    11    9   16 1
    12   10   17 1
    13   11   12 1
    14   11   13 2
    15   14   18 2
    16   15   18 1
    17   16   18 1
    18   17   18 1
    19    1   19 1
    20    2   20 1
    21    3   21 1
    22    4   22 1
    23    7   23 1
    24    7   24 1
    25    7   25 1
    26    8   26 1
    27    8   27 1
    28    8   28 1
    29    9   29 1
    30    9   30 1
    31   10   31 1
    32   10   32 1
@<TRIPOS>MOLECULE
*****
   32    32     0     0     0
SMALL
NO_CHARGES

@<TRIPOS>ATOM
      1 C1         -0.9369   -2.6587    4.2467 C.ar      1 <0>         0.0000
      2 C2          1.3795   -2.5237    4.9198 C.ar      1 <0>         0.0000
      3 C3         -0.6812   -1.7832    3.1914 C.ar      1 <0>         0.0000
      4 C4          1.6352   -1.6483    3.8644 C.ar      1 <0>         0.0000
      5 C5          0.0935   -3.0289    5.1110 C.ar      1 <0>         0.0000
      6 C6          0.6048   -1.2781    3.0002 C.ar      1 <0>         0.0000
      7 C7          0.5787    2.9742   -0.7699 C.3       1 <0>         0.0000
      8 C8         -1.1543   -0.7830   -2.0890 C.3       1 <0>         0.0000
      9 C9          0.1738    1.7847    0.0744 C.3       1 <0>         0.0000
     10 C10        -1.5090   -1.6064   -0.8692 C.3       1 <0>         0.0000
     11 N1         -0.1665   -3.9199    6.1856 N.pl3     1 <0>         0.0000
     12 O1         -1.3303   -4.3630    6.3403 O.3       1 <0>         0.0000
     13 O2          0.7746   -4.2397    6.9516 O.2       1 <0>         0.0000
     14 O3          1.4463   -1.9247   -0.1105 O.2       1 <0>         0.0000
     15 O4          0.8556   -0.4191    1.9646 O.3       1 <0>         0.0000
     16 O5          0.8996    0.6457   -0.3547 O.3       1 <0>         0.0000
     17 O6         -0.9623   -0.9855    0.2818 O.3       1 <0>         0.0000
     18 P1          0.6399   -0.7644    0.4012 P.3       1 <0>         0.0000
     19 H1         -1.9437   -3.0454    4.3843 H         1 <0>         0.0000
     20 H2          2.1918   -2.8036    5.5862 H         1 <0>         0.0000
     21 H3         -1.4879   -1.4987    2.5212 H         1 <0>         0.0000
     22 H4          2.6390   -1.2578    3.7209 H         1 <0>         0.0000
     23 H5          1.6473    3.1815   -0.6651 H         1 <0>         0.0000
     24 H6          0.3559    2.7916   -1.8263 H         1 <0>         0.0000
     25 H7          0.0154    3.8660   -0.4754 H         1 <0>         0.0000
     26 H8         -1.5640    0.2279   -2.0101 H         1 <0>         0.0000
     27 H9         -0.0678   -0.7160   -2.2070 H         1 <0>         0.0000
     28 H10        -1.5447   -1.2523   -2.9981 H         1 <0>         0.0000
     29 H11        -0.8959    1.5828   -0.0350 H         1 <0>         0.0000
     30 H12         0.3978    1.9686    1.1294 H         1 <0>         0.0000
     31 H13        -1.0963   -2.6161   -0.9545 H         1 <0>         0.0000
     32 H14        -2.5948   -1.6716   -0.7524 H         1 <0>         0.0000
@<TRIPOS>BOND
     1    1    3 ar
     2    1    5 ar
     3    2    4 ar
     4    2    5 ar
     5    3    6 ar
     6    4    6 ar
     7    5   11 1
     8    6   15 1
     9    7    9 1
    10    8   10 1
    11    9   16 1
    12   10   17 1
    13   11   12 1
    14   11   13 2
    15   14   18 2
    16   15   18 1
    17   16   18 1
    18   17   18 1
    19    1   19 1
    20    2   20 1
    21    3   21 1
    22    4   22 1
    23    7   23 1
    24    7   24 1
    25    7   25 1
    26    8   26 1
    27    8   27 1
    28    8   28 1
    29    9   29 1
    30    9   30 1
    31   10   31 1
    32   10   32 1
@<TRIPOS>MOLECULE
*****
   32    32     0     0     0
SMALL
NO_CHARGES

@<TRIPOS>ATOM
      1 C1          3.9423    1.4275    2.6712 C.ar      1 <0>         0.0000
      2 C2          3.8085   -0.4895    4.1356 C.ar      1 <0>         0.0000
      3 C3          2.7253    1.0695    2.0913 C.ar      1 <0>         0.0000
      4 C4          2.5914   -0.8475    3.5557 C.ar      1 <0>         0.0000
      5 C5          4.4839    0.6480    3.6934 C.ar      1 <0>         0.0000
      6 C6          2.0498   -0.0680    2.5336 C.ar      1 <0>         0.0000
      7 C7         -0.1849    0.0697   -2.4016 C.3       1 <0>         0.0000
      8 C8         -3.2760   -0.4393    0.4984 C.3       1 <0>         0.0000
      9 C9          1.0649    0.6361   -1.7621 C.3       1 <0>         0.0000
     10 C10        -1.8528    0.0243    0.7248 C.3       1 <0>         0.0000
     11 N1          5.7229    1.0121    4.2838 N.pl3     1 <0>         0.0000
     12 O1          6.3146    2.0389    3.8714 O.3       1 <0>         0.0000
     13 O2          6.1926    0.2967    5.2016 O.2       1 <0>         0.0000
     14 O3          1.4463   -1.9247   -0.1105 O.2       1 <0>         0.0000
     15 O4          0.8556   -0.4191    1.9646 O.3       1 <0>         0.0000
     16 O5          0.8996    0.6457   -0.3547 O.3       1 <0>         0.0000
     17 O6         -0.9623   -0.9855    0.2818 O.3       1 <0>         0.0000
     18 P1          0.6399   -0.7644    0.4012 P.3       1 <0>         0.0000
     19 H1          4.4583    2.3167    2.3174 H         1 <0>         0.0000
     20 H2          4.2194   -1.1063    4.9311 H         1 <0>         0.0000
     21 H3          2.3082    1.6809    1.2957 H         1 <0>         0.0000
     22 H4          2.0701   -1.7349    3.9042 H         1 <0>         0.0000
     23 H5         -0.3658   -0.9547   -2.0645 H         1 <0>         0.0000
     24 H6         -1.0574    0.6829   -2.1532 H         1 <0>         0.0000
     25 H7         -0.0948    0.0718   -3.4929 H         1 <0>         0.0000
     26 H8         -3.4612   -0.6268   -0.5629 H         1 <0>         0.0000
     27 H9         -3.4768   -1.3576    1.0600 H         1 <0>         0.0000
     28 H10        -3.9880    0.3131    0.8537 H         1 <0>         0.0000
     29 H11         1.2400    1.6607   -2.1034 H         1 <0>         0.0000
     30 H12         1.9355    0.0218   -2.0106 H         1 <0>         0.0000
     31 H13        -1.6742    0.2100    1.7881 H         1 <0>         0.0000
     32 H14        -1.6537    0.9414    0.1624 H         1 <0>         0.0000
@<TRIPOS>BOND
     1    1    3 ar
     2    1    5 ar
     3    2    4 ar
     4    2    5 ar
     5    3    6 ar
     6    4    6 ar
     7    5   11 1
     8    6   15 1
     9    7    9 1
    10    8   10 1
    11    9   16 1
    12   10   17 1
    13   11   12 1
    14   11   13 2
    15   14   18 2
    16   15   18 1
    17   16   18 1
    18   17   18 1
    19    1   19 1
    20    2   20 1
    21    3   21 1
    22    4   22 1
    23    7   23 1
    24    7   24 1
    25    7   25 1
    26    8   26 1
    27    8   27 1
    28    8   28 1
    29    9   29 1
    30    9   30 1
    31   10   31 1
    32   10   32 1
@<TRIPOS>MOLECULE
*****
   32    32     0     0     0
SMALL
NO_CHARGES

@<TRIPOS>ATOM
      1 C1          3.9750    1.4981    2.1398 C.ar      1 <0>         0.0000
      2 C2          3.0660    1.2515    4.3647 C.ar      1 <0>         0.0000
      3 C3          2.9010    0.7750    1.6209 C.ar      1 <0>         0.0000
      4 C4          1.9920    0.5285    3.8457 C.ar      1 <0>         0.0000
      5 C5          4.0575    1.7363    3.5117 C.ar      1 <0>         0.0000
      6 C6          1.9095    0.2902    2.4738 C.ar      1 <0>         0.0000
      7 C7          1.2927    2.0538   -2.2415 C.3       1 <0>         0.0000
      8 C8         -3.0270   -2.1796    0.3797 C.3       1 <0>         0.0000
      9 C9          1.0649    0.6361   -1.7621 C.3       1 <0>         0.0000
     10 C10        -1.5270   -2.2533    0.5694 C.3       1 <0>         0.0000
     11 N1          5.1508    2.4722    4.0403 N.pl3     1 <0>         0.0000
     12 O1          6.0323    2.8995    3.2560 O.3       1 <0>         0.0000
     13 O2          5.2060    2.6748    5.2775 O.2       1 <0>         0.0000
     14 O3          1.4463   -1.9247   -0.1105 O.2       1 <0>         0.0000
     15 O4          0.8556   -0.4191    1.9646 O.3       1 <0>         0.0000
     16 O5          0.8996    0.6457   -0.3547 O.3       1 <0>         0.0000
     17 O6         -0.9623   -0.9855    0.2818 O.3       1 <0>         0.0000
     18 P1          0.6399   -0.7644    0.4012 P.3       1 <0>         0.0000
     19 H1          4.7408    1.8707    1.4639 H         1 <0>         0.0000
     20 H2          3.1182    1.4295    5.4360 H         1 <0>         0.0000
     21 H3          2.8419    0.5930    0.5512 H         1 <0>         0.0000
     22 H4          1.2229    0.1530    4.5153 H         1 <0>         0.0000
     23 H5          0.4390    2.6911   -1.9948 H         1 <0>         0.0000
     24 H6          2.1932    2.4762   -1.7836 H         1 <0>         0.0000
     25 H7          1.4473    2.0744   -3.3254 H         1 <0>         0.0000
     26 H8         -3.4695   -1.4398    1.0526 H         1 <0>         0.0000
     27 H9         -3.2728   -1.9101   -0.6527 H         1 <0>         0.0000
     28 H10        -3.4887   -3.1536    0.5729 H         1 <0>         0.0000
     29 H11         1.9223    0.0041   -2.0120 H         1 <0>         0.0000
     30 H12         0.1644    0.2159   -2.2200 H         1 <0>         0.0000
     31 H13        -1.0907   -2.9950   -0.1065 H         1 <0>         0.0000
     32 H14        -1.2832   -2.5218    1.6016 H         1 <0>         0.0000
@<TRIPOS>BOND
     1    1    3 ar
     2    1    5 ar
     3    2    4 ar
     4    2    5 ar
     5    3    6 ar
     6    4    6 ar
     7    5   11 1
     8    6   15 1
     9    7    9 1
    10    8   10 1
    11    9   16 1
    12   10   17 1
    13   11   12 1
    14   11   13 2
    15   14   18 2
    16   15   18 1
    17   16   18 1
    18   17   18 1
    19    1   19 1
    20    2   20 1
    21    3   21 1
    22    4   22 1
    23    7   23 1
    24    7   24 1
    25    7   25 1
    26    8   26 1
    27    8   27 1
    28    8   28 1
    29    9   29 1
    30    9   30 1
    31   10   31 1
    32   10   32 1
@<TRIPOS>MOLECULE
*****
   32    32     0     0     0
SMALL
NO_CHARGES

@<TRIPOS>ATOM
      1 C1          0.0913   -3.2019    4.2248 C.ar      1 <0>         0.0000
      2 C2          2.2805   -2.3264    4.7519 C.ar      1 <0>         0.0000
      3 C3         -0.0418   -2.2568    3.2077 C.ar      1 <0>         0.0000
      4 C4          2.1474   -1.3813    3.7348 C.ar      1 <0>         0.0000
      5 C5          1.2524   -3.2367    4.9970 C.ar      1 <0>         0.0000
      6 C6          0.9862   -1.3465    2.9627 C.ar      1 <0>         0.0000
      7 C7          3.0787    1.0430    0.5347 C.3       1 <0>         0.0000
      8 C8         -3.0494   -1.3745   -0.8096 C.3       1 <0>         0.0000
      9 C9          2.2277    0.9829   -0.7159 C.3       1 <0>         0.0000
     10 C10        -1.5563   -1.1996   -0.9873 C.3       1 <0>         0.0000
     11 N1          1.3882   -4.1986    6.0327 N.pl3     1 <0>         0.0000
     12 O1          0.4517   -5.0085    6.2370 O.3       1 <0>         0.0000
     13 O2          2.4408   -4.2124    6.7157 O.2       1 <0>         0.0000
     14 O3          1.4463   -1.9247   -0.1105 O.2       1 <0>         0.0000
     15 O4          0.8556   -0.4191    1.9646 O.3       1 <0>         0.0000
     16 O5          0.8996    0.6457   -0.3547 O.3       1 <0>         0.0000
     17 O6         -0.9623   -0.9855    0.2818 O.3       1 <0>         0.0000
     18 P1          0.6399   -0.7644    0.4012 P.3       1 <0>         0.0000
     19 H1         -0.7174   -3.9059    4.4052 H         1 <0>         0.0000
     20 H2          3.1907   -2.3420    5.3465 H         1 <0>         0.0000
     21 H3         -0.9486   -2.2348    2.6093 H         1 <0>         0.0000
     22 H4          2.9516   -0.6745    3.5489 H         1 <0>         0.0000
     23 H5          2.7021    1.8013    1.2268 H         1 <0>         0.0000
     24 H6          3.0869    0.0732    1.0430 H         1 <0>         0.0000
     25 H7          4.1180    1.2792    0.2832 H         1 <0>         0.0000
     26 H8         -3.2684   -2.2356   -0.1721 H         1 <0>         0.0000
     27 H9         -3.4920   -0.4798   -0.3596 H         1 <0>         0.0000
     28 H10        -3.5390   -1.5187   -1.7785 H         1 <0>         0.0000
     29 H11         2.6097    0.2226   -1.4038 H         1 <0>         0.0000
     30 H12         2.2200    1.9528   -1.2221 H         1 <0>         0.0000
     31 H13        -1.3442   -0.3369   -1.6258 H         1 <0>         0.0000
     32 H14        -1.1155   -2.0947   -1.4362 H         1 <0>         0.0000
@<TRIPOS>BOND
     1    1    3 ar
     2    1    5 ar
     3    2    4 ar
     4    2    5 ar
     5    3    6 ar
     6    4    6 ar
     7    5   11 1
     8    6   15 1
     9    7    9 1
    10    8   10 1
    11    9   16 1
    12   10   17 1
    13   11   12 1
    14   11   13 2
    15   14   18 2
    16   15   18 1
    17   16   18 1
    18   17   18 1
    19    1   19 1
    20    2   20 1
    21    3   21 1
    22    4   22 1
    23    7   23 1
    24    7   24 1
    25    7   25 1
    26    8   26 1
    27    8   27 1
    28    8   28 1
    29    9   29 1
    30    9   30 1
    31   10   31 1
    32   10   32 1
@<TRIPOS>MOLECULE
*****
   32    32     0     0     0
SMALL
NO_CHARGES

@<TRIPOS>ATOM
      1 C1          0.4869   -3.5298    3.8684 C.ar      1 <0>         0.0000
      2 C2          1.8850   -1.9985    5.1084 C.ar      1 <0>         0.0000
      3 C3          0.3537   -2.5847    2.8513 C.ar      1 <0>         0.0000
      4 C4          1.7519   -1.0533    4.0912 C.ar      1 <0>         0.0000
      5 C5          1.2525   -3.2367    4.9970 C.ar      1 <0>         0.0000
      6 C6          0.9862   -1.3465    2.9627 C.ar      1 <0>         0.0000
      7 C7          2.2086    2.4977   -1.0990 C.3       1 <0>         0.0000
      8 C8         -1.6581    0.8605    1.6259 C.3       1 <0>         0.0000
      9 C9          2.2078    1.1900   -0.3364 C.3       1 <0>         0.0000
     10 C10        -1.8366    0.1297    0.3122 C.3       1 <0>         0.0000
     11 N1          1.3881   -4.1986    6.0327 N.pl3     1 <0>         0.0000
     12 O1          0.8110   -5.3064    5.9132 O.3       1 <0>         0.0000
     13 O2          2.0811   -3.9144    7.0395 O.2       1 <0>         0.0000
     14 O3          1.4463   -1.9247   -0.1105 O.2       1 <0>         0.0000
     15 O4          0.8556   -0.4191    1.9646 O.3       1 <0>         0.0000
     16 O5          0.8996    0.6457   -0.3547 O.3       1 <0>         0.0000
     17 O6         -0.9623   -0.9855    0.2818 O.3       1 <0>         0.0000
     18 P1          0.6399   -0.7644    0.4012 P.3       1 <0>         0.0000
     19 H1         -0.0110   -4.4912    3.7689 H         1 <0>         0.0000
     20 H2          2.4844   -1.7567    5.9827 H         1 <0>         0.0000
     21 H3         -0.2437   -2.8189    1.9744 H         1 <0>         0.0000
     22 H4          2.2467   -0.0904    4.1839 H         1 <0>         0.0000
     23 H5          1.9097    2.3428   -2.1395 H         1 <0>         0.0000
     24 H6          1.5219    3.2145   -0.6369 H         1 <0>         0.0000
     25 H7          3.2040    2.9539   -1.0817 H         1 <0>         0.0000
     26 H8         -1.8954    0.2080    2.4707 H         1 <0>         0.0000
     27 H9         -0.6283    1.2168    1.7326 H         1 <0>         0.0000
     28 H10        -2.3059    1.7425    1.6679 H         1 <0>         0.0000
     29 H11         2.5076    1.3519    0.7033 H         1 <0>         0.0000
     30 H12         2.8938    0.4747   -0.7999 H         1 <0>         0.0000
     31 H13        -1.5978    0.7878   -0.5286 H         1 <0>         0.0000
     32 H14        -2.8658   -0.2263    0.2075 H         1 <0>         0.0000
@<TRIPOS>BOND
     1    1    3 ar
     2    1    5 ar
     3    2    4 ar
     4    2    5 ar
     5    3    6 ar
     6    4    6 ar
     7    5   11 1
     8    6   15 1
     9    7    9 1
    10    8   10 1
    11    9   16 1
    12   10   17 1
    13   11   12 1
    14   11   13 2
    15   14   18 2
    16   15   18 1
    17   16   18 1
    18   17   18 1
    19    1   19 1
    20    2   20 1
    21    3   21 1
    22    4   22 1
    23    7   23 1
    24    7   24 1
    25    7   25 1
    26    8   26 1
    27    8   27 1
    28    8   28 1
    29    9   29 1
    30    9   30 1
    31   10   31 1
    32   10   32 1
@<TRIPOS>MOLECULE
*****
   32    32     0     0     0
SMALL
NO_CHARGES

@<TRIPOS>ATOM
      1 C1          2.1644   -3.2146    3.9417 C.ar      1 <0>         0.0000
      2 C2          0.2076   -2.3134    5.0353 C.ar      1 <0>         0.0000
      3 C3          2.0312   -2.2696    2.9245 C.ar      1 <0>         0.0000
      4 C4          0.0744   -1.3684    4.0181 C.ar      1 <0>         0.0000
      5 C5          1.2526   -3.2366    4.9971 C.ar      1 <0>         0.0000
      6 C6          0.9862   -1.3465    2.9627 C.ar      1 <0>         0.0000
      7 C7         -0.1849    0.0697   -2.4016 C.3       1 <0>         0.0000
      8 C8         -3.2760   -0.4393    0.4984 C.3       1 <0>         0.0000
      9 C9          1.0649    0.6361   -1.7621 C.3       1 <0>         0.0000
     10 C10        -1.8528    0.0243    0.7248 C.3       1 <0>         0.0000
     11 N1          1.3878   -4.1986    6.0327 N.pl3     1 <0>         0.0000
     12 O1          2.3347   -5.0203    5.9796 O.3       1 <0>         0.0000
     13 O2          0.5564   -4.2012    6.9726 O.2       1 <0>         0.0000
     14 O3          1.4463   -1.9247   -0.1105 O.2       1 <0>         0.0000
     15 O4          0.8556   -0.4191    1.9646 O.3       1 <0>         0.0000
     16 O5          0.8996    0.6457   -0.3547 O.3       1 <0>         0.0000
     17 O6         -0.9623   -0.9855    0.2818 O.3       1 <0>         0.0000
     18 P1          0.6399   -0.7644    0.4012 P.3       1 <0>         0.0000
     19 H1          2.9837   -3.9282    3.9001 H         1 <0>         0.0000
     20 H2         -0.5104   -2.3196    5.8517 H         1 <0>         0.0000
     21 H3          2.7448   -2.2572    2.1052 H         1 <0>         0.0000
     22 H4         -0.7419   -0.6521    4.0531 H         1 <0>         0.0000
     23 H5         -0.3658   -0.9547   -2.0645 H         1 <0>         0.0000
     24 H6         -1.0574    0.6829   -2.1532 H         1 <0>         0.0000
     25 H7         -0.0948    0.0718   -3.4929 H         1 <0>         0.0000
     26 H8         -3.4612   -0.6268   -0.5629 H         1 <0>         0.0000
     27 H9         -3.4768   -1.3576    1.0600 H         1 <0>         0.0000
     28 H10        -3.9880    0.3131    0.8537 H         1 <0>         0.0000
     29 H11         1.2400    1.6607   -2.1034 H         1 <0>         0.0000
     30 H12         1.9355    0.0218   -2.0106 H         1 <0>         0.0000
     31 H13        -1.6742    0.2100    1.7881 H         1 <0>         0.0000
     32 H14        -1.6537    0.9414    0.1624 H         1 <0>         0.0000
@<TRIPOS>BOND
     1    1    3 ar
     2    1    5 ar
     3    2    4 ar
     4    2    5 ar
     5    3    6 ar
     6    4    6 ar
     7    5   11 1
     8    6   15 1
     9    7    9 1
    10    8   10 1
    11    9   16 1
    12   10   17 1
    13   11   12 1
    14   11   13 2
    15   14   18 2
    16   15   18 1
    17   16   18 1
    18   17   18 1
    19    1   19 1
    20    2   20 1
    21    3   21 1
    22    4   22 1
    23    7   23 1
    24    7   24 1
    25    7   25 1
    26    8   26 1
    27    8   27 1
    28    8   28 1
    29    9   29 1
    30    9   30 1
    31   10   31 1
    32   10   32 1
@<TRIPOS>MOLECULE
*****
   32    32     0     0     0
SMALL
NO_CHARGES

@<TRIPOS>ATOM
      1 C1          4.2869    0.5481    2.8177 C.ar      1 <0>         0.0000
      2 C2          2.7543    2.2014    3.6866 C.ar      1 <0>         0.0000
      3 C3          3.2128   -0.1749    2.2989 C.ar      1 <0>         0.0000
      4 C4          1.6802    1.4784    3.1677 C.ar      1 <0>         0.0000
      5 C5          4.0576    1.7362    3.5117 C.ar      1 <0>         0.0000
      6 C6          1.9095    0.2902    2.4738 C.ar      1 <0>         0.0000
      7 C7          0.3711    2.8736   -1.0289 C.3       1 <0>         0.0000
      8 C8         -1.2055   -2.6228    2.0018 C.3       1 <0>         0.0000
      9 C9         -0.0853    1.6592   -0.2488 C.3       1 <0>         0.0000
     10 C10        -1.5270   -2.2533    0.5694 C.3       1 <0>         0.0000
     11 N1          5.1508    2.4723    4.0402 N.pl3     1 <0>         0.0000
     12 O1          6.3155    2.0366    3.8720 O.3       1 <0>         0.0000
     13 O2          4.9224    3.5384    4.6615 O.2       1 <0>         0.0000
     14 O3          1.4463   -1.9247   -0.1105 O.2       1 <0>         0.0000
     15 O4          0.8556   -0.4191    1.9646 O.3       1 <0>         0.0000
     16 O5          0.8996    0.6457   -0.3547 O.3       1 <0>         0.0000
     17 O6         -0.9623   -0.9855    0.2818 O.3       1 <0>         0.0000
     18 P1          0.6399   -0.7644    0.4012 P.3       1 <0>         0.0000
     19 H1          5.2978    0.1746    2.6740 H         1 <0>         0.0000
     20 H2          2.5612    3.1255    4.2258 H         1 <0>         0.0000
     21 H3          3.3977   -1.0996    1.7589 H         1 <0>         0.0000
     22 H4          0.6671    1.8456    3.3076 H         1 <0>         0.0000
     23 H5          1.3139    3.2605   -0.6323 H         1 <0>         0.0000
     24 H6          0.5081    2.6242   -2.0862 H         1 <0>         0.0000
     25 H7         -0.3828    3.6666   -0.9841 H         1 <0>         0.0000
     26 H8         -0.1245   -2.6789    2.1571 H         1 <0>         0.0000
     27 H9         -1.6244   -1.8850    2.6940 H         1 <0>         0.0000
     28 H10        -1.6501   -3.5897    2.2599 H         1 <0>         0.0000
     29 H11        -1.0286    1.2773   -0.6505 H         1 <0>         0.0000
     30 H12        -0.2209    1.9099    0.8075 H         1 <0>         0.0000
     31 H13        -2.6095   -2.1989    0.4208 H         1 <0>         0.0000
     32 H14        -1.1071   -2.9910   -0.1209 H         1 <0>         0.0000
@<TRIPOS>BOND
     1    1    3 ar
     2    1    5 ar
     3    2    4 ar
     4    2    5 ar
     5    3    6 ar
     6    4    6 ar
     7    5   11 1
     8    6   15 1
     9    7    9 1
    10    8   10 1
    11    9   16 1
    12   10   17 1
    13   11   12 1
    14   11   13 2
    15   14   18 2
    16   15   18 1
    17   16   18 1
    18   17   18 1
    19    1   19 1
    20    2   20 1
    21    3   21 1
    22    4   22 1
    23    7   23 1
    24    7   24 1
    25    7   25 1
    26    8   26 1
    27    8   27 1
    28    8   28 1
    29    9   29 1
    30    9   30 1
    31   10   31 1
    32   10   32 1
@<TRIPOS>MOLECULE
*****
   32    32     0     0     0
SMALL
NO_CHARGES

@<TRIPOS>ATOM
      1 C1          3.9423    1.4275    2.6712 C.ar      1 <0>         0.0000
      2 C2          3.8085   -0.4895    4.1356 C.ar      1 <0>         0.0000
      3 C3          2.7253    1.0695    2.0913 C.ar      1 <0>         0.0000
      4 C4          2.5914   -0.8475    3.5557 C.ar      1 <0>         0.0000
      5 C5          4.4839    0.6480    3.6934 C.ar      1 <0>         0.0000
      6 C6          2.0498   -0.0680    2.5336 C.ar      1 <0>         0.0000
      7 C7          0.9532    2.1233   -2.2286 C.3       1 <0>         0.0000
      8 C8         -1.2055   -2.6228    2.0018 C.3       1 <0>         0.0000
      9 C9          0.6411    0.7228   -1.7459 C.3       1 <0>         0.0000
     10 C10        -1.5270   -2.2533    0.5694 C.3       1 <0>         0.0000
     11 N1          5.7229    1.0121    4.2838 N.pl3     1 <0>         0.0000
     12 O1          6.3146    2.0389    3.8714 O.3       1 <0>         0.0000
     13 O2          6.1926    0.2967    5.2016 O.2       1 <0>         0.0000
     14 O3          1.4463   -1.9247   -0.1105 O.2       1 <0>         0.0000
     15 O4          0.8556   -0.4191    1.9646 O.3       1 <0>         0.0000
     16 O5          0.8996    0.6457   -0.3547 O.3       1 <0>         0.0000
     17 O6         -0.9623   -0.9855    0.2818 O.3       1 <0>         0.0000
     18 P1          0.6399   -0.7644    0.4012 P.3       1 <0>         0.0000
     19 H1          4.4583    2.3167    2.3174 H         1 <0>         0.0000
     20 H2          4.2194   -1.1063    4.9311 H         1 <0>         0.0000
     21 H3          2.3082    1.6809    1.2957 H         1 <0>         0.0000
     22 H4          2.0701   -1.7349    3.9042 H         1 <0>         0.0000
     23 H5          0.3289    2.8607   -1.7163 H         1 <0>         0.0000
     24 H6          2.0058    2.3671   -2.0514 H         1 <0>         0.0000
     25 H7          0.7845    2.2061   -3.3074 H         1 <0>         0.0000
     26 H8         -0.1245   -2.6789    2.1571 H         1 <0>         0.0000
     27 H9         -1.6244   -1.8850    2.6940 H         1 <0>         0.0000
     28 H10        -1.6501   -3.5897    2.2599 H         1 <0>         0.0000
     29 H11         1.2688   -0.0097   -2.2621 H         1 <0>         0.0000
     30 H12        -0.4111    0.4812   -1.9229 H         1 <0>         0.0000
     31 H13        -2.6095   -2.1989    0.4208 H         1 <0>         0.0000
     32 H14        -1.1071   -2.9910   -0.1209 H         1 <0>         0.0000
@<TRIPOS>BOND
     1    1    3 ar
     2    1    5 ar
     3    2    4 ar
     4    2    5 ar
     5    3    6 ar
     6    4    6 ar
     7    5   11 1
     8    6   15 1
     9    7    9 1
    10    8   10 1
    11    9   16 1
    12   10   17 1
    13   11   12 1
    14   11   13 2
    15   14   18 2
    16   15   18 1
    17   16   18 1
    18   17   18 1
    19    1   19 1
    20    2   20 1
    21    3   21 1
    22    4   22 1
    23    7   23 1
    24    7   24 1
    25    7   25 1
    26    8   26 1
    27    8   27 1
    28    8   28 1
    29    9   29 1
    30    9   30 1
    31   10   31 1
    32   10   32 1
@<TRIPOS>MOLECULE
*****
   32    32     0     0     0
SMALL
NO_CHARGES

@<TRIPOS>ATOM
      1 C1          4.0784    0.6681    3.3314 C.ar      1 <0>         0.0000
      2 C2          3.7176   -1.6536    3.8941 C.ar      1 <0>         0.0000
      3 C3          2.8523    0.6977    2.6671 C.ar      1 <0>         0.0000
      4 C4          2.4914   -1.6240    3.2298 C.ar      1 <0>         0.0000
      5 C5          4.5111   -0.5076    3.9449 C.ar      1 <0>         0.0000
      6 C6          2.0588   -0.4483    2.6163 C.ar      1 <0>         0.0000
      7 C7          2.2245    2.3317   -1.4032 C.3       1 <0>         0.0000
      8 C8         -3.2760   -0.4393    0.4984 C.3       1 <0>         0.0000
      9 C9          2.2277    0.9829   -0.7159 C.3       1 <0>         0.0000
     10 C10        -1.8528    0.0243    0.7248 C.3       1 <0>         0.0000
     11 N1          5.7594   -0.5381    4.6210 N.pl3     1 <0>         0.0000
     12 O1          6.4582    0.5035    4.6551 O.3       1 <0>         0.0000
     13 O2          6.1299   -1.6062    5.1657 O.2       1 <0>         0.0000
     14 O3          1.4463   -1.9247   -0.1105 O.2       1 <0>         0.0000
     15 O4          0.8556   -0.4191    1.9646 O.3       1 <0>         0.0000
     16 O5          0.8996    0.6457   -0.3547 O.3       1 <0>         0.0000
     17 O6         -0.9623   -0.9855    0.2818 O.3       1 <0>         0.0000
     18 P1          0.6399   -0.7644    0.4012 P.3       1 <0>         0.0000
     19 H1          4.6871    1.5685    3.3639 H         1 <0>         0.0000
     20 H2          4.0428   -2.5768    4.3674 H         1 <0>         0.0000
     21 H3          2.5204    1.6166    2.1915 H         1 <0>         0.0000
     22 H4          1.8778   -2.5201    3.1933 H         1 <0>         0.0000
     23 H5          1.6123    2.3067   -2.3089 H         1 <0>         0.0000
     24 H6          1.8340    3.1051   -0.7337 H         1 <0>         0.0000
     25 H7          3.2431    2.6294   -1.6734 H         1 <0>         0.0000
     26 H8         -3.4612   -0.6268   -0.5629 H         1 <0>         0.0000
     27 H9         -3.4768   -1.3576    1.0600 H         1 <0>         0.0000
     28 H10        -3.9880    0.3131    0.8537 H         1 <0>         0.0000
     29 H11         2.8418    1.0147    0.1891 H         1 <0>         0.0000
     30 H12         2.6174    0.2112   -1.3864 H         1 <0>         0.0000
     31 H13        -1.6742    0.2100    1.7881 H         1 <0>         0.0000
     32 H14        -1.6537    0.9414    0.1624 H         1 <0>         0.0000
@<TRIPOS>BOND
     1    1    3 ar
     2    1    5 ar
     3    2    4 ar
     4    2    5 ar
     5    3    6 ar
     6    4    6 ar
     7    5   11 1
     8    6   15 1
     9    7    9 1
    10    8   10 1
    11    9   16 1
    12   10   17 1
    13   11   12 1
    14   11   13 2
    15   14   18 2
    16   15   18 1
    17   16   18 1
    18   17   18 1
    19    1   19 1
    20    2   20 1
    21    3   21 1
    22    4   22 1
    23    7   23 1
    24    7   24 1
    25    7   25 1
    26    8   26 1
    27    8   27 1
    28    8   28 1
    29    9   29 1
    30    9   30 1
    31   10   31 1
    32   10   32 1
@<TRIPOS>MOLECULE
*****
   32    32     0     0     0
SMALL
NO_CHARGES

@<TRIPOS>ATOM
      1 C1          4.3497   -0.5877    3.0599 C.ar      1 <0>         0.0000
      2 C2          3.4012    1.5255    3.7466 C.ar      1 <0>         0.0000
      3 C3          3.1326   -0.9456    2.4801 C.ar      1 <0>         0.0000
      4 C4          2.1841    1.1676    3.1668 C.ar      1 <0>         0.0000
      5 C5          4.4840    0.6478    3.6932 C.ar      1 <0>         0.0000
      6 C6          2.0498   -0.0680    2.5336 C.ar      1 <0>         0.0000
      7 C7         -0.1849    0.0697   -2.4016 C.3       1 <0>         0.0000
      8 C8         -3.0270   -2.1796    0.3797 C.3       1 <0>         0.0000
      9 C9          1.0649    0.6361   -1.7621 C.3       1 <0>         0.0000
     10 C10        -1.5270   -2.2533    0.5694 C.3       1 <0>         0.0000
     11 N1          5.7228    1.0124    4.2837 N.pl3     1 <0>         0.0000
     12 O1          6.6845    0.2085    4.2248 O.3       1 <0>         0.0000
     13 O2          5.8220    2.1284    4.8488 O.2       1 <0>         0.0000
     14 O3          1.4463   -1.9247   -0.1105 O.2       1 <0>         0.0000
     15 O4          0.8556   -0.4191    1.9646 O.3       1 <0>         0.0000
     16 O5          0.8996    0.6457   -0.3547 O.3       1 <0>         0.0000
     17 O6         -0.9623   -0.9855    0.2818 O.3       1 <0>         0.0000
     18 P1          0.6399   -0.7644    0.4012 P.3       1 <0>         0.0000
     19 H1          5.1859   -1.2810    3.0109 H         1 <0>         0.0000
     20 H2          3.4919    2.4914    4.2375 H         1 <0>         0.0000
     21 H3          3.0342   -1.9094    1.9879 H         1 <0>         0.0000
     22 H4          1.3441    1.8554    3.2120 H         1 <0>         0.0000
     23 H5         -0.3658   -0.9547   -2.0645 H         1 <0>         0.0000
     24 H6         -1.0574    0.6829   -2.1532 H         1 <0>         0.0000
     25 H7         -0.0948    0.0718   -3.4929 H         1 <0>         0.0000
     26 H8         -3.4695   -1.4398    1.0526 H         1 <0>         0.0000
     27 H9         -3.2728   -1.9101   -0.6527 H         1 <0>         0.0000
     28 H10        -3.4887   -3.1536    0.5729 H         1 <0>         0.0000
     29 H11         1.2400    1.6607   -2.1034 H         1 <0>         0.0000
     30 H12         1.9355    0.0218   -2.0106 H         1 <0>         0.0000
     31 H13        -1.0907   -2.9950   -0.1065 H         1 <0>         0.0000
     32 H14        -1.2832   -2.5218    1.6016 H         1 <0>         0.0000
@<TRIPOS>BOND
     1    1    3 ar
     2    1    5 ar
     3    2    4 ar
     4    2    5 ar
     5    3    6 ar
     6    4    6 ar
     7    5   11 1
     8    6   15 1
     9    7    9 1
    10    8   10 1
    11    9   16 1
    12   10   17 1
    13   11   12 1
    14   11   13 2
    15   14   18 2
    16   15   18 1
    17   16   18 1
    18   17   18 1
    19    1   19 1
    20    2   20 1
    21    3   21 1
    22    4   22 1
    23    7   23 1
    24    7   24 1
    25    7   25 1
    26    8   26 1
    27    8   27 1
    28    8   28 1
    29    9   29 1
    30    9   30 1
    31   10   31 1
    32   10   32 1
@<TRIPOS>MOLECULE
*****
   32    32     0     0     0
SMALL
NO_CHARGES

@<TRIPOS>ATOM
      1 C1          1.0277   -3.3697    4.1328 C.ar      1 <0>         0.0000
      2 C2         -0.5847   -1.8125    5.0340 C.ar      1 <0>         0.0000
      3 C3          1.2833   -2.4944    3.0774 C.ar      1 <0>         0.0000
      4 C4         -0.3292   -0.9371    3.9785 C.ar      1 <0>         0.0000
      5 C5          0.0937   -3.0288    5.1112 C.ar      1 <0>         0.0000
      6 C6          0.6048   -1.2781    3.0002 C.ar      1 <0>         0.0000
      7 C7          3.2838    0.5769   -0.2642 C.3       1 <0>         0.0000
      8 C8         -3.0494   -1.3745   -0.8096 C.3       1 <0>         0.0000
      9 C9          2.0432    1.4023    0.0030 C.3       1 <0>         0.0000
     10 C10        -1.5563   -1.1996   -0.9873 C.3       1 <0>         0.0000
     11 N1         -0.1668   -3.9198    6.1856 N.pl3     1 <0>         0.0000
     12 O1          0.4541   -5.0090    6.2366 O.3       1 <0>         0.0000
     13 O2         -1.0112   -3.5938    7.0548 O.2       1 <0>         0.0000
     14 O3          1.4463   -1.9247   -0.1105 O.2       1 <0>         0.0000
     15 O4          0.8556   -0.4191    1.9646 O.3       1 <0>         0.0000
     16 O5          0.8996    0.6457   -0.3547 O.3       1 <0>         0.0000
     17 O6         -0.9623   -0.9855    0.2818 O.3       1 <0>         0.0000
     18 P1          0.6399   -0.7644    0.4012 P.3       1 <0>         0.0000
     19 H1          1.5637   -4.3144    4.1813 H         1 <0>         0.0000
     20 H2         -1.3156   -1.5344    5.7894 H         1 <0>         0.0000
     21 H3          2.0122   -2.7653    2.3185 H         1 <0>         0.0000
     22 H4         -0.8612    0.0088    3.9236 H         1 <0>         0.0000
     23 H5          3.2752   -0.3431    0.3268 H         1 <0>         0.0000
     24 H6          3.3520    0.3149   -1.3252 H         1 <0>         0.0000
     25 H7          4.1863    1.1463   -0.0183 H         1 <0>         0.0000
     26 H8         -3.2684   -2.2356   -0.1721 H         1 <0>         0.0000
     27 H9         -3.4920   -0.4798   -0.3596 H         1 <0>         0.0000
     28 H10        -3.5390   -1.5187   -1.7785 H         1 <0>         0.0000
     29 H11         2.0581    2.3208   -0.5911 H         1 <0>         0.0000
     30 H12         1.9761    1.6624    1.0636 H         1 <0>         0.0000
     31 H13        -1.3442   -0.3369   -1.6258 H         1 <0>         0.0000
     32 H14        -1.1155   -2.0947   -1.4362 H         1 <0>         0.0000
@<TRIPOS>BOND
     1    1    3 ar
     2    1    5 ar
     3    2    4 ar
     4    2    5 ar
     5    3    6 ar
     6    4    6 ar
     7    5   11 1
     8    6   15 1
     9    7    9 1
    10    8   10 1
    11    9   16 1
    12   10   17 1
    13   11   12 1
    14   11   13 2
    15   14   18 2
    16   15   18 1
    17   16   18 1
    18   17   18 1
    19    1   19 1
    20    2   20 1
    21    3   21 1
    22    4   22 1
    23    7   23 1
    24    7   24 1
    25    7   25 1
    26    8   26 1
    27    8   27 1
    28    8   28 1
    29    9   29 1
    30    9   30 1
    31   10   31 1
    32   10   32 1
@<TRIPOS>MOLECULE
*****
   32    32     0     0     0
SMALL
NO_CHARGES

@<TRIPOS>ATOM
      1 C1          2.3828   -2.7714    4.3250 C.ar      1 <0>         0.0000
      2 C2         -0.0109   -2.7566    4.6521 C.ar      1 <0>         0.0000
      3 C3          2.2497   -1.8264    3.3077 C.ar      1 <0>         0.0000
      4 C4         -0.1441   -1.8116    3.6349 C.ar      1 <0>         0.0000
      5 C5          1.2526   -3.2365    4.9972 C.ar      1 <0>         0.0000
      6 C6          0.9862   -1.3465    2.9627 C.ar      1 <0>         0.0000
      7 C7          2.2086    2.4977   -1.0990 C.3       1 <0>         0.0000
      8 C8         -1.1543   -0.7830   -2.0890 C.3       1 <0>         0.0000
      9 C9          2.2078    1.1900   -0.3364 C.3       1 <0>         0.0000
     10 C10        -1.5090   -1.6064   -0.8692 C.3       1 <0>         0.0000
     11 N1          1.3878   -4.1987    6.0326 N.pl3     1 <0>         0.0000
     12 O1          2.5332   -4.6177    6.3277 O.3       1 <0>         0.0000
     13 O2          0.3581   -4.6041    6.6242 O.2       1 <0>         0.0000
     14 O3          1.4463   -1.9247   -0.1105 O.2       1 <0>         0.0000
     15 O4          0.8556   -0.4191    1.9646 O.3       1 <0>         0.0000
     16 O5          0.8996    0.6457   -0.3547 O.3       1 <0>         0.0000
     17 O6         -0.9623   -0.9855    0.2818 O.3       1 <0>         0.0000
     18 P1          0.6399   -0.7644    0.4012 P.3       1 <0>         0.0000
     19 H1          3.3734   -3.1369    4.5843 H         1 <0>         0.0000
     20 H2         -0.9003   -3.1109    5.1674 H         1 <0>         0.0000
     21 H3          3.1339   -1.4675    2.7879 H         1 <0>         0.0000
     22 H4         -1.1310   -1.4418    3.3703 H         1 <0>         0.0000
     23 H5          1.9097    2.3428   -2.1395 H         1 <0>         0.0000
     24 H6          1.5219    3.2145   -0.6369 H         1 <0>         0.0000
     25 H7          3.2040    2.9539   -1.0817 H         1 <0>         0.0000
     26 H8         -1.5640    0.2279   -2.0101 H         1 <0>         0.0000
     27 H9         -0.0678   -0.7160   -2.2070 H         1 <0>         0.0000
     28 H10        -1.5447   -1.2523   -2.9981 H         1 <0>         0.0000
     29 H11         2.5076    1.3519    0.7033 H         1 <0>         0.0000
     30 H12         2.8938    0.4747   -0.7999 H         1 <0>         0.0000
     31 H13        -1.0963   -2.6161   -0.9545 H         1 <0>         0.0000
     32 H14        -2.5948   -1.6716   -0.7524 H         1 <0>         0.0000
@<TRIPOS>BOND
     1    1    3 ar
     2    1    5 ar
     3    2    4 ar
     4    2    5 ar
     5    3    6 ar
     6    4    6 ar
     7    5   11 1
     8    6   15 1
     9    7    9 1
    10    8   10 1
    11    9   16 1
    12   10   17 1
    13   11   12 1
    14   11   13 2
    15   14   18 2
    16   15   18 1
    17   16   18 1
    18   17   18 1
    19    1   19 1
    20    2   20 1
    21    3   21 1
    22    4   22 1
    23    7   23 1
    24    7   24 1
    25    7   25 1
    26    8   26 1
    27    8   27 1
    28    8   28 1
    29    9   29 1
    30    9   30 1
    31   10   31 1
    32   10   32 1
@<TRIPOS>MOLECULE
*****
   32    32     0     0     0
SMALL
NO_CHARGES

@<TRIPOS>ATOM
      1 C1         -1.9185    0.3865    4.2211 C.ar      1 <0>         0.0000
      2 C2         -0.7698    2.4231    3.6129 C.ar      1 <0>         0.0000
      3 C3         -1.0319   -0.3486    3.4342 C.ar      1 <0>         0.0000
      4 C4          0.1168    1.6880    2.8260 C.ar      1 <0>         0.0000
      5 C5         -1.7875    1.7724    4.3105 C.ar      1 <0>         0.0000
      6 C6         -0.0143    0.3022    2.7366 C.ar      1 <0>         0.0000
      7 C7          0.9532    2.1233   -2.2286 C.3       1 <0>         0.0000
      8 C8         -3.0270   -2.1796    0.3797 C.3       1 <0>         0.0000
      9 C9          0.6411    0.7228   -1.7459 C.3       1 <0>         0.0000
     10 C10        -1.5270   -2.2533    0.5694 C.3       1 <0>         0.0000
     11 N1         -2.6900    2.5210    5.1113 N.pl3     1 <0>         0.0000
     12 O1         -3.5985    1.9165    5.7307 O.3       1 <0>         0.0000
     13 O2         -2.5546    3.7667    5.1775 O.2       1 <0>         0.0000
     14 O3          1.4463   -1.9247   -0.1105 O.2       1 <0>         0.0000
     15 O4          0.8556   -0.4191    1.9646 O.3       1 <0>         0.0000
     16 O5          0.8996    0.6457   -0.3547 O.3       1 <0>         0.0000
     17 O6         -0.9623   -0.9855    0.2818 O.3       1 <0>         0.0000
     18 P1          0.6399   -0.7644    0.4012 P.3       1 <0>         0.0000
     19 H1         -2.7070   -0.1331    4.7599 H         1 <0>         0.0000
     20 H2         -0.6565    3.5027    3.6732 H         1 <0>         0.0000
     21 H3         -1.1388   -1.4279    3.3688 H         1 <0>         0.0000
     22 H4          0.9073    2.2006    2.2846 H         1 <0>         0.0000
     23 H5          0.3289    2.8607   -1.7163 H         1 <0>         0.0000
     24 H6          2.0058    2.3671   -2.0514 H         1 <0>         0.0000
     25 H7          0.7845    2.2061   -3.3074 H         1 <0>         0.0000
     26 H8         -3.4695   -1.4398    1.0526 H         1 <0>         0.0000
     27 H9         -3.2728   -1.9101   -0.6527 H         1 <0>         0.0000
     28 H10        -3.4887   -3.1536    0.5729 H         1 <0>         0.0000
     29 H11         1.2688   -0.0097   -2.2621 H         1 <0>         0.0000
     30 H12        -0.4111    0.4812   -1.9229 H         1 <0>         0.0000
     31 H13        -1.0907   -2.9950   -0.1065 H         1 <0>         0.0000
     32 H14        -1.2832   -2.5218    1.6016 H         1 <0>         0.0000
@<TRIPOS>BOND
     1    1    3 ar
     2    1    5 ar
     3    2    4 ar
     4    2    5 ar
     5    3    6 ar
     6    4    6 ar
     7    5   11 1
     8    6   15 1
     9    7    9 1
    10    8   10 1
    11    9   16 1
    12   10   17 1
    13   11   12 1
    14   11   13 2
    15   14   18 2
    16   15   18 1
    17   16   18 1
    18   17   18 1
    19    1   19 1
    20    2   20 1
    21    3   21 1
    22    4   22 1
    23    7   23 1
    24    7   24 1
    25    7   25 1
    26    8   26 1
    27    8   27 1
    28    8   28 1
    29    9   29 1
    30    9   30 1
    31   10   31 1
    32   10   32 1
@<TRIPOS>MOLECULE
*****
   32    32     0     0     0
SMALL
NO_CHARGES

@<TRIPOS>ATOM
      1 C1          4.3497   -0.5877    3.0599 C.ar      1 <0>         0.0000
      2 C2          3.4012    1.5255    3.7466 C.ar      1 <0>         0.0000
      3 C3          3.1326   -0.9456    2.4801 C.ar      1 <0>         0.0000
      4 C4          2.1841    1.1676    3.1668 C.ar      1 <0>         0.0000
      5 C5          4.4840    0.6478    3.6932 C.ar      1 <0>         0.0000
      6 C6          2.0498   -0.0680    2.5336 C.ar      1 <0>         0.0000
      7 C7          2.2245    2.3317   -1.4032 C.3       1 <0>         0.0000
      8 C8         -1.1543   -0.7830   -2.0890 C.3       1 <0>         0.0000
      9 C9          2.2277    0.9829   -0.7159 C.3       1 <0>         0.0000
     10 C10        -1.5090   -1.6064   -0.8692 C.3       1 <0>         0.0000
     11 N1          5.7228    1.0124    4.2837 N.pl3     1 <0>         0.0000
     12 O1          6.6845    0.2085    4.2248 O.3       1 <0>         0.0000
     13 O2          5.8220    2.1284    4.8488 O.2       1 <0>         0.0000
     14 O3          1.4463   -1.9247   -0.1105 O.2       1 <0>         0.0000
     15 O4          0.8556   -0.4191    1.9646 O.3       1 <0>         0.0000
     16 O5          0.8996    0.6457   -0.3547 O.3       1 <0>         0.0000
     17 O6         -0.9623   -0.9855    0.2818 O.3       1 <0>         0.0000
     18 P1          0.6399   -0.7644    0.4012 P.3       1 <0>         0.0000
     19 H1          5.1859   -1.2810    3.0109 H         1 <0>         0.0000
     20 H2          3.4919    2.4914    4.2375 H         1 <0>         0.0000
     21 H3          3.0342   -1.9094    1.9879 H         1 <0>         0.0000
     22 H4          1.3441    1.8554    3.2120 H         1 <0>         0.0000
     23 H5          1.6123    2.3067   -2.3089 H         1 <0>         0.0000
     24 H6          1.8340    3.1051   -0.7337 H         1 <0>         0.0000
     25 H7          3.2431    2.6294   -1.6734 H         1 <0>         0.0000
     26 H8         -1.5640    0.2279   -2.0101 H         1 <0>         0.0000
     27 H9         -0.0678   -0.7160   -2.2070 H         1 <0>         0.0000
     28 H10        -1.5447   -1.2523   -2.9981 H         1 <0>         0.0000
     29 H11         2.8418    1.0147    0.1891 H         1 <0>         0.0000
     30 H12         2.6174    0.2112   -1.3864 H         1 <0>         0.0000
     31 H13        -1.0963   -2.6161   -0.9545 H         1 <0>         0.0000
     32 H14        -2.5948   -1.6716   -0.7524 H         1 <0>         0.0000
@<TRIPOS>BOND
     1    1    3 ar
     2    1    5 ar
     3    2    4 ar
     4    2    5 ar
     5    3    6 ar
     6    4    6 ar
     7    5   11 1
     8    6   15 1
     9    7    9 1
    10    8   10 1
    11    9   16 1
    12   10   17 1
    13   11   12 1
    14   11   13 2
    15   14   18 2
    16   15   18 1
    17   16   18 1
    18   17   18 1
    19    1   19 1
    20    2   20 1
    21    3   21 1
    22    4   22 1
    23    7   23 1
    24    7   24 1
    25    7   25 1
    26    8   26 1
    27    8   27 1
    28    8   28 1
    29    9   29 1
    30    9   30 1
    31   10   31 1
    32   10   32 1
@<TRIPOS>MOLECULE
*****
   32    32     0     0     0
SMALL
NO_CHARGES

@<TRIPOS>ATOM
      1 C1          3.9423    1.4275    2.6712 C.ar      1 <0>         0.0000
      2 C2          3.8085   -0.4895    4.1356 C.ar      1 <0>         0.0000
      3 C3          2.7253    1.0695    2.0913 C.ar      1 <0>         0.0000
      4 C4          2.5914   -0.8475    3.5557 C.ar      1 <0>         0.0000
      5 C5          4.4839    0.6480    3.6934 C.ar      1 <0>         0.0000
      6 C6          2.0498   -0.0680    2.5336 C.ar      1 <0>         0.0000
      7 C7          1.2927    2.0538   -2.2415 C.3       1 <0>         0.0000
      8 C8         -3.0133   -1.6852   -0.7194 C.3       1 <0>         0.0000
      9 C9          1.0649    0.6361   -1.7621 C.3       1 <0>         0.0000
     10 C10        -1.5090   -1.6064   -0.8692 C.3       1 <0>         0.0000
     11 N1          5.7229    1.0121    4.2838 N.pl3     1 <0>         0.0000
     12 O1          6.3146    2.0389    3.8714 O.3       1 <0>         0.0000
     13 O2          6.1926    0.2967    5.2016 O.2       1 <0>         0.0000
     14 O3          1.4463   -1.9247   -0.1105 O.2       1 <0>         0.0000
     15 O4          0.8556   -0.4191    1.9646 O.3       1 <0>         0.0000
     16 O5          0.8996    0.6457   -0.3547 O.3       1 <0>         0.0000
     17 O6         -0.9623   -0.9855    0.2818 O.3       1 <0>         0.0000
     18 P1          0.6399   -0.7644    0.4012 P.3       1 <0>         0.0000
     19 H1          4.4583    2.3167    2.3174 H         1 <0>         0.0000
     20 H2          4.2194   -1.1063    4.9311 H         1 <0>         0.0000
     21 H3          2.3082    1.6809    1.2957 H         1 <0>         0.0000
     22 H4          2.0701   -1.7349    3.9042 H         1 <0>         0.0000
     23 H5          0.4390    2.6911   -1.9948 H         1 <0>         0.0000
     24 H6          2.1932    2.4762   -1.7836 H         1 <0>         0.0000
     25 H7          1.4473    2.0744   -3.3254 H         1 <0>         0.0000
     26 H8         -3.2875   -2.2758    0.1591 H         1 <0>         0.0000
     27 H9         -3.4444   -0.6836   -0.6208 H         1 <0>         0.0000
     28 H10        -3.4660   -2.1406   -1.6065 H         1 <0>         0.0000
     29 H11         1.9223    0.0041   -2.0120 H         1 <0>         0.0000
     30 H12         0.1644    0.2159   -2.2200 H         1 <0>         0.0000
     31 H13        -1.2415   -1.0144   -1.7496 H         1 <0>         0.0000
     32 H14        -1.0797   -2.6080   -0.9669 H         1 <0>         0.0000
@<TRIPOS>BOND
     1    1    3 ar
     2    1    5 ar
     3    2    4 ar
     4    2    5 ar
     5    3    6 ar
     6    4    6 ar
     7    5   11 1
     8    6   15 1
     9    7    9 1
    10    8   10 1
    11    9   16 1
    12   10   17 1
    13   11   12 1
    14   11   13 2
    15   14   18 2
    16   15   18 1
    17   16   18 1
    18   17   18 1
    19    1   19 1
    20    2   20 1
    21    3   21 1
    22    4   22 1
    23    7   23 1
    24    7   24 1
    25    7   25 1
    26    8   26 1
    27    8   27 1
    28    8   28 1
    29    9   29 1
    30    9   30 1
    31   10   31 1
    32   10   32 1
@<TRIPOS>MOLECULE
*****
   32    32     0     0     0
SMALL
NO_CHARGES

@<TRIPOS>ATOM
      1 C1         -1.6933    2.0271    2.9421 C.ar      1 <0>         0.0000
      2 C2         -0.9953    0.7825    4.8916 C.ar      1 <0>         0.0000
      3 C3         -0.8066    1.2920    2.1553 C.ar      1 <0>         0.0000
      4 C4         -0.1086    0.0474    4.1048 C.ar      1 <0>         0.0000
      5 C5         -1.7876    1.7724    4.3103 C.ar      1 <0>         0.0000
      6 C6         -0.0143    0.3022    2.7366 C.ar      1 <0>         0.0000
      7 C7          2.2086    2.4977   -1.0990 C.3       1 <0>         0.0000
      8 C8         -1.1543   -0.7830   -2.0890 C.3       1 <0>         0.0000
      9 C9          2.2078    1.1900   -0.3364 C.3       1 <0>         0.0000
     10 C10        -1.5090   -1.6064   -0.8692 C.3       1 <0>         0.0000
     11 N1         -2.6900    2.5207    5.1115 N.pl3     1 <0>         0.0000
     12 O1         -3.3937    3.4068    4.5691 O.3       1 <0>         0.0000
     13 O2         -2.7588    2.2757    6.3403 O.2       1 <0>         0.0000
     14 O3          1.4463   -1.9247   -0.1105 O.2       1 <0>         0.0000
     15 O4          0.8556   -0.4191    1.9646 O.3       1 <0>         0.0000
     16 O5          0.8996    0.6457   -0.3547 O.3       1 <0>         0.0000
     17 O6         -0.9623   -0.9855    0.2818 O.3       1 <0>         0.0000
     18 P1          0.6399   -0.7644    0.4012 P.3       1 <0>         0.0000
     19 H1         -2.3054    2.7956    2.4763 H         1 <0>         0.0000
     20 H2         -1.0582    0.5739    5.9568 H         1 <0>         0.0000
     21 H3         -0.7379    1.4948    1.0900 H         1 <0>         0.0000
     22 H4          0.5063   -0.7222    4.5635 H         1 <0>         0.0000
     23 H5          1.9097    2.3428   -2.1395 H         1 <0>         0.0000
     24 H6          1.5219    3.2145   -0.6369 H         1 <0>         0.0000
     25 H7          3.2040    2.9539   -1.0817 H         1 <0>         0.0000
     26 H8         -1.5640    0.2279   -2.0101 H         1 <0>         0.0000
     27 H9         -0.0678   -0.7160   -2.2070 H         1 <0>         0.0000
     28 H10        -1.5447   -1.2523   -2.9981 H         1 <0>         0.0000
     29 H11         2.5076    1.3519    0.7033 H         1 <0>         0.0000
     30 H12         2.8938    0.4747   -0.7999 H         1 <0>         0.0000
     31 H13        -1.0963   -2.6161   -0.9545 H         1 <0>         0.0000
     32 H14        -2.5948   -1.6716   -0.7524 H         1 <0>         0.0000
@<TRIPOS>BOND
     1    1    3 ar
     2    1    5 ar
     3    2    4 ar
     4    2    5 ar
     5    3    6 ar
     6    4    6 ar
     7    5   11 1
     8    6   15 1
     9    7    9 1
    10    8   10 1
    11    9   16 1
    12   10   17 1
    13   11   12 1
    14   11   13 2
    15   14   18 2
    16   15   18 1
    17   16   18 1
    18   17   18 1
    19    1   19 1
    20    2   20 1
    21    3   21 1
    22    4   22 1
    23    7   23 1
    24    7   24 1
    25    7   25 1
    26    8   26 1
    27    8   27 1
    28    8   28 1
    29    9   29 1
    30    9   30 1
    31   10   31 1
    32   10   32 1
@<TRIPOS>MOLECULE
*****
   32    32     0     0     0
SMALL
NO_CHARGES

@<TRIPOS>ATOM
      1 C1          4.4166    0.3709    2.3278 C.ar      1 <0>         0.0000
      2 C2          3.3342    0.5671    4.4788 C.ar      1 <0>         0.0000
      3 C3          3.1996    0.0129    1.7480 C.ar      1 <0>         0.0000
      4 C4          2.1171    0.2092    3.8990 C.ar      1 <0>         0.0000
      5 C5          4.4840    0.6480    3.6932 C.ar      1 <0>         0.0000
      6 C6          2.0498   -0.0680    2.5336 C.ar      1 <0>         0.0000
      7 C7         -0.1849    0.0697   -2.4016 C.3       1 <0>         0.0000
      8 C8         -1.2055   -2.6228    2.0018 C.3       1 <0>         0.0000
      9 C9          1.0649    0.6361   -1.7621 C.3       1 <0>         0.0000
     10 C10        -1.5270   -2.2533    0.5694 C.3       1 <0>         0.0000
     11 N1          5.7228    1.0122    4.2838 N.pl3     1 <0>         0.0000
     12 O1          6.7454    1.0791    3.5597 O.3       1 <0>         0.0000
     13 O2          5.7614    1.2570    5.5140 O.2       1 <0>         0.0000
     14 O3          1.4463   -1.9247   -0.1105 O.2       1 <0>         0.0000
     15 O4          0.8556   -0.4191    1.9646 O.3       1 <0>         0.0000
     16 O5          0.8996    0.6457   -0.3547 O.3       1 <0>         0.0000
     17 O6         -0.9623   -0.9855    0.2818 O.3       1 <0>         0.0000
     18 P1          0.6399   -0.7644    0.4012 P.3       1 <0>         0.0000
     19 H1          5.3052    0.4305    1.7041 H         1 <0>         0.0000
     20 H2          3.3725    0.7799    5.5444 H         1 <0>         0.0000
     21 H3          3.1533   -0.2015    0.6837 H         1 <0>         0.0000
     22 H4          1.2249    0.1475    4.5162 H         1 <0>         0.0000
     23 H5         -0.3658   -0.9547   -2.0645 H         1 <0>         0.0000
     24 H6         -1.0574    0.6829   -2.1532 H         1 <0>         0.0000
     25 H7         -0.0948    0.0718   -3.4929 H         1 <0>         0.0000
     26 H8         -0.1245   -2.6789    2.1571 H         1 <0>         0.0000
     27 H9         -1.6244   -1.8850    2.6940 H         1 <0>         0.0000
     28 H10        -1.6501   -3.5897    2.2599 H         1 <0>         0.0000
     29 H11         1.2400    1.6607   -2.1034 H         1 <0>         0.0000
     30 H12         1.9355    0.0218   -2.0106 H         1 <0>         0.0000
     31 H13        -2.6095   -2.1989    0.4208 H         1 <0>         0.0000
     32 H14        -1.1071   -2.9910   -0.1209 H         1 <0>         0.0000
@<TRIPOS>BOND
     1    1    3 ar
     2    1    5 ar
     3    2    4 ar
     4    2    5 ar
     5    3    6 ar
     6    4    6 ar
     7    5   11 1
     8    6   15 1
     9    7    9 1
    10    8   10 1
    11    9   16 1
    12   10   17 1
    13   11   12 1
    14   11   13 2
    15   14   18 2
    16   15   18 1
    17   16   18 1
    18   17   18 1
    19    1   19 1
    20    2   20 1
    21    3   21 1
    22    4   22 1
    23    7   23 1
    24    7   24 1
    25    7   25 1
    26    8   26 1
    27    8   27 1
    28    8   28 1
    29    9   29 1
    30    9   30 1
    31   10   31 1
    32   10   32 1
@<TRIPOS>MOLECULE
*****
   32    32     0     0     0
SMALL
NO_CHARGES

@<TRIPOS>ATOM
      1 C1         -0.1305   -3.4373    3.7963 C.ar      1 <0>         0.0000
      2 C2          0.5734   -1.7451    5.3704 C.ar      1 <0>         0.0000
      3 C3          0.1250   -2.5619    2.7409 C.ar      1 <0>         0.0000
      4 C4          0.8290   -0.8696    4.3150 C.ar      1 <0>         0.0000
      5 C5          0.0936   -3.0289    5.1111 C.ar      1 <0>         0.0000
      6 C6          0.6048   -1.2781    3.0002 C.ar      1 <0>         0.0000
      7 C7          3.0787    1.0430    0.5347 C.3       1 <0>         0.0000
      8 C8         -1.1543   -0.7830   -2.0890 C.3       1 <0>         0.0000
      9 C9          2.2277    0.9829   -0.7159 C.3       1 <0>         0.0000
     10 C10        -1.5090   -1.6064   -0.8692 C.3       1 <0>         0.0000
     11 N1         -0.1666   -3.9198    6.1857 N.pl3     1 <0>         0.0000
     12 O1         -0.5980   -5.0703    5.9310 O.3       1 <0>         0.0000
     13 O2          0.0415   -3.5321    7.3609 O.2       1 <0>         0.0000
     14 O3          1.4463   -1.9247   -0.1105 O.2       1 <0>         0.0000
     15 O4          0.8556   -0.4191    1.9646 O.3       1 <0>         0.0000
     16 O5          0.8996    0.6457   -0.3547 O.3       1 <0>         0.0000
     17 O6         -0.9623   -0.9855    0.2818 O.3       1 <0>         0.0000
     18 P1          0.6399   -0.7644    0.4012 P.3       1 <0>         0.0000
     19 H1         -0.5039   -4.4353    3.5803 H         1 <0>         0.0000
     20 H2          0.7521   -1.4136    6.3904 H         1 <0>         0.0000
     21 H3         -0.0512   -2.8858    1.7187 H         1 <0>         0.0000
     22 H4          1.2023    0.1293    4.5234 H         1 <0>         0.0000
     23 H5          2.7021    1.8013    1.2268 H         1 <0>         0.0000
     24 H6          3.0869    0.0732    1.0430 H         1 <0>         0.0000
     25 H7          4.1180    1.2792    0.2832 H         1 <0>         0.0000
     26 H8         -1.5640    0.2279   -2.0101 H         1 <0>         0.0000
     27 H9         -0.0678   -0.7160   -2.2070 H         1 <0>         0.0000
     28 H10        -1.5447   -1.2523   -2.9981 H         1 <0>         0.0000
     29 H11         2.6097    0.2226   -1.4038 H         1 <0>         0.0000
     30 H12         2.2200    1.9528   -1.2221 H         1 <0>         0.0000
     31 H13        -1.0963   -2.6161   -0.9545 H         1 <0>         0.0000
     32 H14        -2.5948   -1.6716   -0.7524 H         1 <0>         0.0000
@<TRIPOS>BOND
     1    1    3 ar
     2    1    5 ar
     3    2    4 ar
     4    2    5 ar
     5    3    6 ar
     6    4    6 ar
     7    5   11 1
     8    6   15 1
     9    7    9 1
    10    8   10 1
    11    9   16 1
    12   10   17 1
    13   11   12 1
    14   11   13 2
    15   14   18 2
    16   15   18 1
    17   16   18 1
    18   17   18 1
    19    1   19 1
    20    2   20 1
    21    3   21 1
    22    4   22 1
    23    7   23 1
    24    7   24 1
    25    7   25 1
    26    8   26 1
    27    8   27 1
    28    8   28 1
    29    9   29 1
    30    9   30 1
    31   10   31 1
    32   10   32 1
@<TRIPOS>MOLECULE
*****
   32    32     0     0     0
SMALL
NO_CHARGES

@<TRIPOS>ATOM
      1 C1         -0.7895    2.7840    2.6503 C.ar      1 <0>         0.0000
      2 C2          0.9871    2.4427    4.2516 C.ar      1 <0>         0.0000
      3 C3         -0.4845    1.5618    2.0512 C.ar      1 <0>         0.0000
      4 C4          1.2922    1.2205    3.6525 C.ar      1 <0>         0.0000
      5 C5         -0.0537    3.2244    3.7504 C.ar      1 <0>         0.0000
      6 C6          0.5564    0.7801    2.5524 C.ar      1 <0>         0.0000
      7 C7          2.2245    2.3317   -1.4032 C.3       1 <0>         0.0000
      8 C8         -1.1543   -0.7830   -2.0890 C.3       1 <0>         0.0000
      9 C9          2.2277    0.9829   -0.7159 C.3       1 <0>         0.0000
     10 C10        -1.5090   -1.6064   -0.8692 C.3       1 <0>         0.0000
     11 N1         -0.3639    4.4686    4.3604 N.pl3     1 <0>         0.0000
     12 O1         -1.3040    5.1568    3.8942 O.3       1 <0>         0.0000
     13 O2          0.3108    4.8463    5.3487 O.2       1 <0>         0.0000
     14 O3          1.4463   -1.9247   -0.1105 O.2       1 <0>         0.0000
     15 O4          0.8556   -0.4191    1.9646 O.3       1 <0>         0.0000
     16 O5          0.8996    0.6457   -0.3547 O.3       1 <0>         0.0000
     17 O6         -0.9623   -0.9855    0.2818 O.3       1 <0>         0.0000
     18 P1          0.6399   -0.7644    0.4012 P.3       1 <0>         0.0000
     19 H1         -1.6035    3.3834    2.2500 H         1 <0>         0.0000
     20 H2          1.5691    2.7741    5.1081 H         1 <0>         0.0000
     21 H3         -1.0614    1.2239    1.1947 H         1 <0>         0.0000
     22 H4          2.1044    0.6161    4.0472 H         1 <0>         0.0000
     23 H5          1.6123    2.3067   -2.3089 H         1 <0>         0.0000
     24 H6          1.8340    3.1051   -0.7337 H         1 <0>         0.0000
     25 H7          3.2431    2.6294   -1.6734 H         1 <0>         0.0000
     26 H8         -1.5640    0.2279   -2.0101 H         1 <0>         0.0000
     27 H9         -0.0678   -0.7160   -2.2070 H         1 <0>         0.0000
     28 H10        -1.5447   -1.2523   -2.9981 H         1 <0>         0.0000
     29 H11         2.8418    1.0147    0.1891 H         1 <0>         0.0000
     30 H12         2.6174    0.2112   -1.3864 H         1 <0>         0.0000
     31 H13        -1.0963   -2.6161   -0.9545 H         1 <0>         0.0000
     32 H14        -2.5948   -1.6716   -0.7524 H         1 <0>         0.0000
@<TRIPOS>BOND
     1    1    3 ar
     2    1    5 ar
     3    2    4 ar
     4    2    5 ar
     5    3    6 ar
     6    4    6 ar
     7    5   11 1
     8    6   15 1
     9    7    9 1
    10    8   10 1
    11    9   16 1
    12   10   17 1
    13   11   12 1
    14   11   13 2
    15   14   18 2
    16   15   18 1
    17   16   18 1
    18   17   18 1
    19    1   19 1
    20    2   20 1
    21    3   21 1
    22    4   22 1
    23    7   23 1
    24    7   24 1
    25    7   25 1
    26    8   26 1
    27    8   27 1
    28    8   28 1
    29    9   29 1
    30    9   30 1
    31   10   31 1
    32   10   32 1
@<TRIPOS>MOLECULE
*****
   32    32     0     0     0
SMALL
NO_CHARGES

@<TRIPOS>ATOM
      1 C1         -1.0579    2.4828    3.1281 C.ar      1 <0>         0.0000
      2 C2          1.2555    2.7438    3.7738 C.ar      1 <0>         0.0000
      3 C3         -0.7528    1.2607    2.5290 C.ar      1 <0>         0.0000
      4 C4          1.5606    1.5216    3.1747 C.ar      1 <0>         0.0000
      5 C5         -0.0537    3.2244    3.7505 C.ar      1 <0>         0.0000
      6 C6          0.5564    0.7801    2.5524 C.ar      1 <0>         0.0000
      7 C7          0.9532    2.1233   -2.2286 C.3       1 <0>         0.0000
      8 C8         -1.2055   -2.6228    2.0018 C.3       1 <0>         0.0000
      9 C9          0.6411    0.7228   -1.7459 C.3       1 <0>         0.0000
     10 C10        -1.5270   -2.2533    0.5694 C.3       1 <0>         0.0000
     11 N1         -0.3639    4.4687    4.3603 N.pl3     1 <0>         0.0000
     12 O1         -1.5478    4.8833    4.3282 O.3       1 <0>         0.0000
     13 O2          0.5545    5.1200    4.9143 O.2       1 <0>         0.0000
     14 O3          1.4463   -1.9247   -0.1105 O.2       1 <0>         0.0000
     15 O4          0.8556   -0.4191    1.9646 O.3       1 <0>         0.0000
     16 O5          0.8996    0.6457   -0.3547 O.3       1 <0>         0.0000
     17 O6         -0.9623   -0.9855    0.2818 O.3       1 <0>         0.0000
     18 P1          0.6399   -0.7644    0.4012 P.3       1 <0>         0.0000
     19 H1         -2.0825    2.8458    3.1031 H         1 <0>         0.0000
     20 H2          2.0481    3.3117    4.2550 H         1 <0>         0.0000
     21 H3         -1.5394    0.6873    2.0460 H         1 <0>         0.0000
     22 H4          2.5825    1.1526    3.1958 H         1 <0>         0.0000
     23 H5          0.3289    2.8607   -1.7163 H         1 <0>         0.0000
     24 H6          2.0058    2.3671   -2.0514 H         1 <0>         0.0000
     25 H7          0.7845    2.2061   -3.3074 H         1 <0>         0.0000
     26 H8         -0.1245   -2.6789    2.1571 H         1 <0>         0.0000
     27 H9         -1.6244   -1.8850    2.6940 H         1 <0>         0.0000
     28 H10        -1.6501   -3.5897    2.2599 H         1 <0>         0.0000
     29 H11         1.2688   -0.0097   -2.2621 H         1 <0>         0.0000
     30 H12        -0.4111    0.4812   -1.9229 H         1 <0>         0.0000
     31 H13        -2.6095   -2.1989    0.4208 H         1 <0>         0.0000
     32 H14        -1.1071   -2.9910   -0.1209 H         1 <0>         0.0000
@<TRIPOS>BOND
     1    1    3 ar
     2    1    5 ar
     3    2    4 ar
     4    2    5 ar
     5    3    6 ar
     6    4    6 ar
     7    5   11 1
     8    6   15 1
     9    7    9 1
    10    8   10 1
    11    9   16 1
    12   10   17 1
    13   11   12 1
    14   11   13 2
    15   14   18 2
    16   15   18 1
    17   16   18 1
    18   17   18 1
    19    1   19 1
    20    2   20 1
    21    3   21 1
    22    4   22 1
    23    7   23 1
    24    7   24 1
    25    7   25 1
    26    8   26 1
    27    8   27 1
    28    8   28 1
    29    9   29 1
    30    9   30 1
    31   10   31 1
    32   10   32 1
@<TRIPOS>MOLECULE
*****
   32    32     0     0     0
SMALL
NO_CHARGES

@<TRIPOS>ATOM
      1 C1          1.6838   -3.5371    3.7050 C.ar      1 <0>         0.0000
      2 C2          0.6883   -1.9910    5.2719 C.ar      1 <0>         0.0000
      3 C3          1.5506   -2.5921    2.6878 C.ar      1 <0>         0.0000
      4 C4          0.5551   -1.0459    4.2548 C.ar      1 <0>         0.0000
      5 C5          1.2526   -3.2366    4.9971 C.ar      1 <0>         0.0000
      6 C6          0.9862   -1.3465    2.9627 C.ar      1 <0>         0.0000
      7 C7          2.2086    2.4977   -1.0990 C.3       1 <0>         0.0000
      8 C8         -3.0494   -1.3745   -0.8096 C.3       1 <0>         0.0000
      9 C9          2.2078    1.1900   -0.3364 C.3       1 <0>         0.0000
     10 C10        -1.5563   -1.1996   -0.9873 C.3       1 <0>         0.0000
     11 N1          1.3879   -4.1986    6.0327 N.pl3     1 <0>         0.0000
     12 O1          1.8981   -5.3132    5.7646 O.3       1 <0>         0.0000
     13 O2          0.9931   -3.9080    7.1879 O.2       1 <0>         0.0000
     14 O3          1.4463   -1.9247   -0.1105 O.2       1 <0>         0.0000
     15 O4          0.8556   -0.4191    1.9646 O.3       1 <0>         0.0000
     16 O5          0.8996    0.6457   -0.3547 O.3       1 <0>         0.0000
     17 O6         -0.9623   -0.9855    0.2818 O.3       1 <0>         0.0000
     18 P1          0.6399   -0.7644    0.4012 P.3       1 <0>         0.0000
     19 H1          2.1258   -4.5041    3.4773 H         1 <0>         0.0000
     20 H2          0.3475   -1.7438    6.2744 H         1 <0>         0.0000
     21 H3          1.8887   -2.8318    1.6833 H         1 <0>         0.0000
     22 H4          0.1143   -0.0774    4.4750 H         1 <0>         0.0000
     23 H5          1.9097    2.3428   -2.1395 H         1 <0>         0.0000
     24 H6          1.5219    3.2145   -0.6369 H         1 <0>         0.0000
     25 H7          3.2040    2.9539   -1.0817 H         1 <0>         0.0000
     26 H8         -3.2684   -2.2356   -0.1721 H         1 <0>         0.0000
     27 H9         -3.4920   -0.4798   -0.3596 H         1 <0>         0.0000
     28 H10        -3.5390   -1.5187   -1.7785 H         1 <0>         0.0000
     29 H11         2.5076    1.3519    0.7033 H         1 <0>         0.0000
     30 H12         2.8938    0.4747   -0.7999 H         1 <0>         0.0000
     31 H13        -1.3442   -0.3369   -1.6258 H         1 <0>         0.0000
     32 H14        -1.1155   -2.0947   -1.4362 H         1 <0>         0.0000
@<TRIPOS>BOND
     1    1    3 ar
     2    1    5 ar
     3    2    4 ar
     4    2    5 ar
     5    3    6 ar
     6    4    6 ar
     7    5   11 1
     8    6   15 1
     9    7    9 1
    10    8   10 1
    11    9   16 1
    12   10   17 1
    13   11   12 1
    14   11   13 2
    15   14   18 2
    16   15   18 1
    17   16   18 1
    18   17   18 1
    19    1   19 1
    20    2   20 1
    21    3   21 1
    22    4   22 1
    23    7   23 1
    24    7   24 1
    25    7   25 1
    26    8   26 1
    27    8   27 1
    28    8   28 1
    29    9   29 1
    30    9   30 1
    31   10   31 1
    32   10   32 1
@<TRIPOS>MOLECULE
*****
   32    32     0     0     0
SMALL
NO_CHARGES

@<TRIPOS>ATOM
      1 C1         -0.9369   -2.6587    4.2467 C.ar      1 <0>         0.0000
      2 C2          1.3795   -2.5237    4.9198 C.ar      1 <0>         0.0000
      3 C3         -0.6812   -1.7832    3.1914 C.ar      1 <0>         0.0000
      4 C4          1.6352   -1.6483    3.8644 C.ar      1 <0>         0.0000
      5 C5          0.0935   -3.0289    5.1110 C.ar      1 <0>         0.0000
      6 C6          0.6048   -1.2781    3.0002 C.ar      1 <0>         0.0000
      7 C7          1.2927    2.0538   -2.2415 C.3       1 <0>         0.0000
      8 C8         -3.0133   -1.6852   -0.7194 C.3       1 <0>         0.0000
      9 C9          1.0649    0.6361   -1.7621 C.3       1 <0>         0.0000
     10 C10        -1.5090   -1.6064   -0.8692 C.3       1 <0>         0.0000
     11 N1         -0.1665   -3.9199    6.1856 N.pl3     1 <0>         0.0000
     12 O1         -1.3303   -4.3630    6.3403 O.3       1 <0>         0.0000
     13 O2          0.7746   -4.2397    6.9516 O.2       1 <0>         0.0000
     14 O3          1.4463   -1.9247   -0.1105 O.2       1 <0>         0.0000
     15 O4          0.8556   -0.4191    1.9646 O.3       1 <0>         0.0000
     16 O5          0.8996    0.6457   -0.3547 O.3       1 <0>         0.0000
     17 O6         -0.9623   -0.9855    0.2818 O.3       1 <0>         0.0000
     18 P1          0.6399   -0.7644    0.4012 P.3       1 <0>         0.0000
     19 H1         -1.9437   -3.0454    4.3843 H         1 <0>         0.0000
     20 H2          2.1918   -2.8036    5.5862 H         1 <0>         0.0000
     21 H3         -1.4879   -1.4987    2.5212 H         1 <0>         0.0000
     22 H4          2.6390   -1.2578    3.7209 H         1 <0>         0.0000
     23 H5          0.4390    2.6911   -1.9948 H         1 <0>         0.0000
     24 H6          2.1932    2.4762   -1.7836 H         1 <0>         0.0000
     25 H7          1.4473    2.0744   -3.3254 H         1 <0>         0.0000
     26 H8         -3.2875   -2.2758    0.1591 H         1 <0>         0.0000
     27 H9         -3.4444   -0.6836   -0.6208 H         1 <0>         0.0000
     28 H10        -3.4660   -2.1406   -1.6065 H         1 <0>         0.0000
     29 H11         1.9223    0.0041   -2.0120 H         1 <0>         0.0000
     30 H12         0.1644    0.2159   -2.2200 H         1 <0>         0.0000
     31 H13        -1.2415   -1.0144   -1.7496 H         1 <0>         0.0000
     32 H14        -1.0797   -2.6080   -0.9669 H         1 <0>         0.0000
@<TRIPOS>BOND
     1    1    3 ar
     2    1    5 ar
     3    2    4 ar
     4    2    5 ar
     5    3    6 ar
     6    4    6 ar
     7    5   11 1
     8    6   15 1
     9    7    9 1
    10    8   10 1
    11    9   16 1
    12   10   17 1
    13   11   12 1
    14   11   13 2
    15   14   18 2
    16   15   18 1
    17   16   18 1
    18   17   18 1
    19    1   19 1
    20    2   20 1
    21    3   21 1
    22    4   22 1
    23    7   23 1
    24    7   24 1
    25    7   25 1
    26    8   26 1
    27    8   27 1
    28    8   28 1
    29    9   29 1
    30    9   30 1
    31   10   31 1
    32   10   32 1
@<TRIPOS>MOLECULE
*****
   32    32     0     0     0
SMALL
NO_CHARGES

@<TRIPOS>ATOM
      1 C1         -0.1305   -3.4373    3.7963 C.ar      1 <0>         0.0000
      2 C2          0.5734   -1.7451    5.3704 C.ar      1 <0>         0.0000
      3 C3          0.1250   -2.5619    2.7409 C.ar      1 <0>         0.0000
      4 C4          0.8290   -0.8696    4.3150 C.ar      1 <0>         0.0000
      5 C5          0.0936   -3.0289    5.1111 C.ar      1 <0>         0.0000
      6 C6          0.6048   -1.2781    3.0002 C.ar      1 <0>         0.0000
      7 C7          2.2245    2.3317   -1.4032 C.3       1 <0>         0.0000
      8 C8         -0.9608   -2.4462   -1.6064 C.3       1 <0>         0.0000
      9 C9          2.2277    0.9829   -0.7159 C.3       1 <0>         0.0000
     10 C10        -1.5563   -1.1996   -0.9873 C.3       1 <0>         0.0000
     11 N1         -0.1666   -3.9198    6.1857 N.pl3     1 <0>         0.0000
     12 O1         -0.5980   -5.0703    5.9310 O.3       1 <0>         0.0000
     13 O2          0.0415   -3.5321    7.3609 O.2       1 <0>         0.0000
     14 O3          1.4463   -1.9247   -0.1105 O.2       1 <0>         0.0000
     15 O4          0.8556   -0.4191    1.9646 O.3       1 <0>         0.0000
     16 O5          0.8996    0.6457   -0.3547 O.3       1 <0>         0.0000
     17 O6         -0.9623   -0.9855    0.2818 O.3       1 <0>         0.0000
     18 P1          0.6399   -0.7644    0.4012 P.3       1 <0>         0.0000
     19 H1         -0.5039   -4.4353    3.5803 H         1 <0>         0.0000
     20 H2          0.7521   -1.4136    6.3904 H         1 <0>         0.0000
     21 H3         -0.0512   -2.8858    1.7187 H         1 <0>         0.0000
     22 H4          1.2023    0.1293    4.5234 H         1 <0>         0.0000
     23 H5          1.6123    2.3067   -2.3089 H         1 <0>         0.0000
     24 H6          1.8340    3.1051   -0.7337 H         1 <0>         0.0000
     25 H7          3.2431    2.6294   -1.6734 H         1 <0>         0.0000
     26 H8          0.1190   -2.3376   -1.7404 H         1 <0>         0.0000
     27 H9         -1.1527   -3.3201   -0.9752 H         1 <0>         0.0000
     28 H10        -1.4189   -2.6500   -2.5799 H         1 <0>         0.0000
     29 H11         2.8418    1.0147    0.1891 H         1 <0>         0.0000
     30 H12         2.6174    0.2112   -1.3864 H         1 <0>         0.0000
     31 H13        -2.6363   -1.3147   -0.8560 H         1 <0>         0.0000
     32 H14        -1.3629   -0.3273   -1.6187 H         1 <0>         0.0000
@<TRIPOS>BOND
     1    1    3 ar
     2    1    5 ar
     3    2    4 ar
     4    2    5 ar
     5    3    6 ar
     6    4    6 ar
     7    5   11 1
     8    6   15 1
     9    7    9 1
    10    8   10 1
    11    9   16 1
    12   10   17 1
    13   11   12 1
    14   11   13 2
    15   14   18 2
    16   15   18 1
    17   16   18 1
    18   17   18 1
    19    1   19 1
    20    2   20 1
    21    3   21 1
    22    4   22 1
    23    7   23 1
    24    7   24 1
    25    7   25 1
    26    8   26 1
    27    8   27 1
    28    8   28 1
    29    9   29 1
    30    9   30 1
    31   10   31 1
    32   10   32 1
@<TRIPOS>MOLECULE
*****
   32    32     0     0     0
SMALL
NO_CHARGES

@<TRIPOS>ATOM
      1 C1          0.4869   -3.5298    3.8684 C.ar      1 <0>         0.0000
      2 C2          1.8850   -1.9985    5.1084 C.ar      1 <0>         0.0000
      3 C3          0.3537   -2.5847    2.8513 C.ar      1 <0>         0.0000
      4 C4          1.7519   -1.0533    4.0912 C.ar      1 <0>         0.0000
      5 C5          1.2525   -3.2367    4.9970 C.ar      1 <0>         0.0000
      6 C6          0.9862   -1.3465    2.9627 C.ar      1 <0>         0.0000
      7 C7          1.2927    2.0538   -2.2415 C.3       1 <0>         0.0000
      8 C8         -1.6472    1.2515    0.7566 C.3       1 <0>         0.0000
      9 C9          1.0649    0.6361   -1.7621 C.3       1 <0>         0.0000
     10 C10        -1.8462   -0.2145    1.0776 C.3       1 <0>         0.0000
     11 N1          1.3881   -4.1986    6.0327 N.pl3     1 <0>         0.0000
     12 O1          0.8110   -5.3064    5.9132 O.3       1 <0>         0.0000
     13 O2          2.0811   -3.9144    7.0395 O.2       1 <0>         0.0000
     14 O3          1.4463   -1.9247   -0.1105 O.2       1 <0>         0.0000
     15 O4          0.8556   -0.4191    1.9646 O.3       1 <0>         0.0000
     16 O5          0.8996    0.6457   -0.3547 O.3       1 <0>         0.0000
     17 O6         -0.9623   -0.9855    0.2818 O.3       1 <0>         0.0000
     18 P1          0.6399   -0.7644    0.4012 P.3       1 <0>         0.0000
     19 H1         -0.0110   -4.4912    3.7689 H         1 <0>         0.0000
     20 H2          2.4844   -1.7567    5.9827 H         1 <0>         0.0000
     21 H3         -0.2437   -2.8189    1.9744 H         1 <0>         0.0000
     22 H4          2.2467   -0.0904    4.1839 H         1 <0>         0.0000
     23 H5          0.4390    2.6911   -1.9948 H         1 <0>         0.0000
     24 H6          2.1932    2.4762   -1.7836 H         1 <0>         0.0000
     25 H7          1.4473    2.0744   -3.3254 H         1 <0>         0.0000
     26 H8         -0.6215    1.5626    0.9730 H         1 <0>         0.0000
     27 H9         -1.8610    1.4479   -0.2991 H         1 <0>         0.0000
     28 H10        -2.3351    1.8712    1.3413 H         1 <0>         0.0000
     29 H11         1.9223    0.0041   -2.0120 H         1 <0>         0.0000
     30 H12         0.1644    0.2159   -2.2200 H         1 <0>         0.0000
     31 H13        -2.8740   -0.5192    0.8590 H         1 <0>         0.0000
     32 H14        -1.6314   -0.4092    2.1326 H         1 <0>         0.0000
@<TRIPOS>BOND
     1    1    3 ar
     2    1    5 ar
     3    2    4 ar
     4    2    5 ar
     5    3    6 ar
     6    4    6 ar
     7    5   11 1
     8    6   15 1
     9    7    9 1
    10    8   10 1
    11    9   16 1
    12   10   17 1
    13   11   12 1
    14   11   13 2
    15   14   18 2
    16   15   18 1
    17   16   18 1
    18   17   18 1
    19    1   19 1
    20    2   20 1
    21    3   21 1
    22    4   22 1
    23    7   23 1
    24    7   24 1
    25    7   25 1
    26    8   26 1
    27    8   27 1
    28    8   28 1
    29    9   29 1
    30    9   30 1
    31   10   31 1
    32   10   32 1
@<TRIPOS>MOLECULE
*****
   32    32     0     0     0
SMALL
NO_CHARGES

@<TRIPOS>ATOM
      1 C1         -1.6335    1.3847    3.9613 C.ar      1 <0>         0.0000
      2 C2          0.1644    2.8905    3.3808 C.ar      1 <0>         0.0000
      3 C3         -0.9926    0.3543    3.2735 C.ar      1 <0>         0.0000
      4 C4          0.8054    1.8601    2.6930 C.ar      1 <0>         0.0000
      5 C5         -1.0550    2.6529    4.0149 C.ar      1 <0>         0.0000
      6 C6          0.2268    0.5920    2.6394 C.ar      1 <0>         0.0000
      7 C7          2.2245    2.3317   -1.4032 C.3       1 <0>         0.0000
      8 C8         -1.1543   -0.7830   -2.0890 C.3       1 <0>         0.0000
      9 C9          2.2277    0.9829   -0.7159 C.3       1 <0>         0.0000
     10 C10        -1.5090   -1.6064   -0.8692 C.3       1 <0>         0.0000
     11 N1         -1.7073    3.7021    4.7149 N.pl3     1 <0>         0.0000
     12 O1         -2.8036    3.4676    5.2785 O.3       1 <0>         0.0000
     13 O2         -1.1697    4.8355    4.7504 O.2       1 <0>         0.0000
     14 O3          1.4463   -1.9247   -0.1105 O.2       1 <0>         0.0000
     15 O4          0.8556   -0.4191    1.9646 O.3       1 <0>         0.0000
     16 O5          0.8996    0.6457   -0.3547 O.3       1 <0>         0.0000
     17 O6         -0.9623   -0.9855    0.2818 O.3       1 <0>         0.0000
     18 P1          0.6399   -0.7644    0.4012 P.3       1 <0>         0.0000
     19 H1         -2.5834    1.1860    4.4516 H         1 <0>         0.0000
     20 H2          0.6263    3.8743    3.4141 H         1 <0>         0.0000
     21 H3         -1.4480   -0.6315    3.2355 H         1 <0>         0.0000
     22 H4          1.7549    2.0515    2.2006 H         1 <0>         0.0000
     23 H5          1.6123    2.3067   -2.3089 H         1 <0>         0.0000
     24 H6          1.8340    3.1051   -0.7337 H         1 <0>         0.0000
     25 H7          3.2431    2.6294   -1.6734 H         1 <0>         0.0000
     26 H8         -1.5640    0.2279   -2.0101 H         1 <0>         0.0000
     27 H9         -0.0678   -0.7160   -2.2070 H         1 <0>         0.0000
     28 H10        -1.5447   -1.2523   -2.9981 H         1 <0>         0.0000
     29 H11         2.8418    1.0147    0.1891 H         1 <0>         0.0000
     30 H12         2.6174    0.2112   -1.3864 H         1 <0>         0.0000
     31 H13        -1.0963   -2.6161   -0.9545 H         1 <0>         0.0000
     32 H14        -2.5948   -1.6716   -0.7524 H         1 <0>         0.0000
@<TRIPOS>BOND
     1    1    3 ar
     2    1    5 ar
     3    2    4 ar
     4    2    5 ar
     5    3    6 ar
     6    4    6 ar
     7    5   11 1
     8    6   15 1
     9    7    9 1
    10    8   10 1
    11    9   16 1
    12   10   17 1
    13   11   12 1
    14   11   13 2
    15   14   18 2
    16   15   18 1
    17   16   18 1
    18   17   18 1
    19    1   19 1
    20    2   20 1
    21    3   21 1
    22    4   22 1
    23    7   23 1
    24    7   24 1
    25    7   25 1
    26    8   26 1
    27    8   27 1
    28    8   28 1
    29    9   29 1
    30    9   30 1
    31   10   31 1
    32   10   32 1
@<TRIPOS>MOLECULE
*****
   32    32     0     0     0
SMALL
NO_CHARGES

@<TRIPOS>ATOM
      1 C1          3.9423    1.4275    2.6712 C.ar      1 <0>         0.0000
      2 C2          3.8085   -0.4895    4.1356 C.ar      1 <0>         0.0000
      3 C3          2.7253    1.0695    2.0913 C.ar      1 <0>         0.0000
      4 C4          2.5914   -0.8475    3.5557 C.ar      1 <0>         0.0000
      5 C5          4.4839    0.6480    3.6934 C.ar      1 <0>         0.0000
      6 C6          2.0498   -0.0680    2.5336 C.ar      1 <0>         0.0000
      7 C7         -0.1849    0.0697   -2.4016 C.3       1 <0>         0.0000
      8 C8         -3.0270   -2.1796    0.3797 C.3       1 <0>         0.0000
      9 C9          1.0649    0.6361   -1.7621 C.3       1 <0>         0.0000
     10 C10        -1.5270   -2.2533    0.5694 C.3       1 <0>         0.0000
     11 N1          5.7229    1.0121    4.2838 N.pl3     1 <0>         0.0000
     12 O1          6.3146    2.0389    3.8714 O.3       1 <0>         0.0000
     13 O2          6.1926    0.2967    5.2016 O.2       1 <0>         0.0000
     14 O3          1.4463   -1.9247   -0.1105 O.2       1 <0>         0.0000
     15 O4          0.8556   -0.4191    1.9646 O.3       1 <0>         0.0000
     16 O5          0.8996    0.6457   -0.3547 O.3       1 <0>         0.0000
     17 O6         -0.9623   -0.9855    0.2818 O.3       1 <0>         0.0000
     18 P1          0.6399   -0.7644    0.4012 P.3       1 <0>         0.0000
     19 H1          4.4583    2.3167    2.3174 H         1 <0>         0.0000
     20 H2          4.2194   -1.1063    4.9311 H         1 <0>         0.0000
     21 H3          2.3082    1.6809    1.2957 H         1 <0>         0.0000
     22 H4          2.0701   -1.7349    3.9042 H         1 <0>         0.0000
     23 H5         -0.3658   -0.9547   -2.0645 H         1 <0>         0.0000
     24 H6         -1.0574    0.6829   -2.1532 H         1 <0>         0.0000
     25 H7         -0.0948    0.0718   -3.4929 H         1 <0>         0.0000
     26 H8         -3.4695   -1.4398    1.0526 H         1 <0>         0.0000
     27 H9         -3.2728   -1.9101   -0.6527 H         1 <0>         0.0000
     28 H10        -3.4887   -3.1536    0.5729 H         1 <0>         0.0000
     29 H11         1.2400    1.6607   -2.1034 H         1 <0>         0.0000
     30 H12         1.9355    0.0218   -2.0106 H         1 <0>         0.0000
     31 H13        -1.0907   -2.9950   -0.1065 H         1 <0>         0.0000
     32 H14        -1.2832   -2.5218    1.6016 H         1 <0>         0.0000
@<TRIPOS>BOND
     1    1    3 ar
     2    1    5 ar
     3    2    4 ar
     4    2    5 ar
     5    3    6 ar
     6    4    6 ar
     7    5   11 1
     8    6   15 1
     9    7    9 1
    10    8   10 1
    11    9   16 1
    12   10   17 1
    13   11   12 1
    14   11   13 2
    15   14   18 2
    16   15   18 1
    17   16   18 1
    18   17   18 1
    19    1   19 1
    20    2   20 1
    21    3   21 1
    22    4   22 1
    23    7   23 1
    24    7   24 1
    25    7   25 1
    26    8   26 1
    27    8   27 1
    28    8   28 1
    29    9   29 1
    30    9   30 1
    31   10   31 1
    32   10   32 1
@<TRIPOS>MOLECULE
*****
   32    32     0     0     0
SMALL
NO_CHARGES

@<TRIPOS>ATOM
      1 C1         -0.1305   -3.4373    3.7963 C.ar      1 <0>         0.0000
      2 C2          0.5734   -1.7451    5.3704 C.ar      1 <0>         0.0000
      3 C3          0.1250   -2.5619    2.7409 C.ar      1 <0>         0.0000
      4 C4          0.8290   -0.8696    4.3150 C.ar      1 <0>         0.0000
      5 C5          0.0936   -3.0289    5.1111 C.ar      1 <0>         0.0000
      6 C6          0.6048   -1.2781    3.0002 C.ar      1 <0>         0.0000
      7 C7         -0.9533    1.8158    0.5915 C.3       1 <0>         0.0000
      8 C8         -3.0494   -1.3745   -0.8096 C.3       1 <0>         0.0000
      9 C9          0.5335    1.8437    0.3079 C.3       1 <0>         0.0000
     10 C10        -1.5563   -1.1996   -0.9873 C.3       1 <0>         0.0000
     11 N1         -0.1666   -3.9198    6.1857 N.pl3     1 <0>         0.0000
     12 O1         -0.5980   -5.0703    5.9310 O.3       1 <0>         0.0000
     13 O2          0.0415   -3.5321    7.3609 O.2       1 <0>         0.0000
     14 O3          1.4463   -1.9247   -0.1105 O.2       1 <0>         0.0000
     15 O4          0.8556   -0.4191    1.9646 O.3       1 <0>         0.0000
     16 O5          0.8996    0.6457   -0.3547 O.3       1 <0>         0.0000
     17 O6         -0.9623   -0.9855    0.2818 O.3       1 <0>         0.0000
     18 P1          0.6399   -0.7644    0.4012 P.3       1 <0>         0.0000
     19 H1         -0.5039   -4.4353    3.5803 H         1 <0>         0.0000
     20 H2          0.7521   -1.4136    6.3904 H         1 <0>         0.0000
     21 H3         -0.0512   -2.8858    1.7187 H         1 <0>         0.0000
     22 H4          1.2023    0.1293    4.5234 H         1 <0>         0.0000
     23 H5         -1.5263    1.7415   -0.3370 H         1 <0>         0.0000
     24 H6         -1.2080    0.9659    1.2331 H         1 <0>         0.0000
     25 H7         -1.2613    2.7211    1.1251 H         1 <0>         0.0000
     26 H8         -3.2684   -2.2356   -0.1721 H         1 <0>         0.0000
     27 H9         -3.4920   -0.4798   -0.3596 H         1 <0>         0.0000
     28 H10        -3.5390   -1.5187   -1.7785 H         1 <0>         0.0000
     29 H11         1.1007    1.9181    1.2405 H         1 <0>         0.0000
     30 H12         0.7861    2.6929   -0.3340 H         1 <0>         0.0000
     31 H13        -1.3442   -0.3369   -1.6258 H         1 <0>         0.0000
     32 H14        -1.1155   -2.0947   -1.4362 H         1 <0>         0.0000
@<TRIPOS>BOND
     1    1    3 ar
     2    1    5 ar
     3    2    4 ar
     4    2    5 ar
     5    3    6 ar
     6    4    6 ar
     7    5   11 1
     8    6   15 1
     9    7    9 1
    10    8   10 1
    11    9   16 1
    12   10   17 1
    13   11   12 1
    14   11   13 2
    15   14   18 2
    16   15   18 1
    17   16   18 1
    18   17   18 1
    19    1   19 1
    20    2   20 1
    21    3   21 1
    22    4   22 1
    23    7   23 1
    24    7   24 1
    25    7   25 1
    26    8   26 1
    27    8   27 1
    28    8   28 1
    29    9   29 1
    30    9   30 1
    31   10   31 1
    32   10   32 1
@<TRIPOS>MOLECULE
*****
   32    32     0     0     0
SMALL
NO_CHARGES

@<TRIPOS>ATOM
      1 C1         -1.2141    2.3520    3.1784 C.ar      1 <0>         0.0000
      2 C2         -1.4744    0.4577    4.6552 C.ar      1 <0>         0.0000
      3 C3         -0.3275    1.6169    2.3917 C.ar      1 <0>         0.0000
      4 C4         -0.5877   -0.2775    3.8684 C.ar      1 <0>         0.0000
      5 C5         -1.7876    1.7725    4.3102 C.ar      1 <0>         0.0000
      6 C6         -0.0143    0.3022    2.7366 C.ar      1 <0>         0.0000
      7 C7          3.0787    1.0430    0.5347 C.3       1 <0>         0.0000
      8 C8         -3.0494   -1.3745   -0.8096 C.3       1 <0>         0.0000
      9 C9          2.2277    0.9829   -0.7159 C.3       1 <0>         0.0000
     10 C10        -1.5563   -1.1996   -0.9873 C.3       1 <0>         0.0000
     11 N1         -2.6901    2.5206    5.1115 N.pl3     1 <0>         0.0000
     12 O1         -2.9585    3.7018    4.7839 O.3       1 <0>         0.0000
     13 O2         -3.1943    1.9803    6.1256 O.2       1 <0>         0.0000
     14 O3          1.4463   -1.9247   -0.1105 O.2       1 <0>         0.0000
     15 O4          0.8556   -0.4191    1.9646 O.3       1 <0>         0.0000
     16 O5          0.8996    0.6457   -0.3547 O.3       1 <0>         0.0000
     17 O6         -0.9623   -0.9855    0.2818 O.3       1 <0>         0.0000
     18 P1          0.6399   -0.7644    0.4012 P.3       1 <0>         0.0000
     19 H1         -1.4500    3.3757    2.8981 H         1 <0>         0.0000
     20 H2         -1.9137   -0.0062    5.5349 H         1 <0>         0.0000
     21 H3          0.1158    2.0737    1.5110 H         1 <0>         0.0000
     22 H4         -0.3474   -1.3011    4.1425 H         1 <0>         0.0000
     23 H5          2.7021    1.8013    1.2268 H         1 <0>         0.0000
     24 H6          3.0869    0.0732    1.0430 H         1 <0>         0.0000
     25 H7          4.1180    1.2792    0.2832 H         1 <0>         0.0000
     26 H8         -3.2684   -2.2356   -0.1721 H         1 <0>         0.0000
     27 H9         -3.4920   -0.4798   -0.3596 H         1 <0>         0.0000
     28 H10        -3.5390   -1.5187   -1.7785 H         1 <0>         0.0000
     29 H11         2.6097    0.2226   -1.4038 H         1 <0>         0.0000
     30 H12         2.2200    1.9528   -1.2221 H         1 <0>         0.0000
     31 H13        -1.3442   -0.3369   -1.6258 H         1 <0>         0.0000
     32 H14        -1.1155   -2.0947   -1.4362 H         1 <0>         0.0000
@<TRIPOS>BOND
     1    1    3 ar
     2    1    5 ar
     3    2    4 ar
     4    2    5 ar
     5    3    6 ar
     6    4    6 ar
     7    5   11 1
     8    6   15 1
     9    7    9 1
    10    8   10 1
    11    9   16 1
    12   10   17 1
    13   11   12 1
    14   11   13 2
    15   14   18 2
    16   15   18 1
    17   16   18 1
    18   17   18 1
    19    1   19 1
    20    2   20 1
    21    3   21 1
    22    4   22 1
    23    7   23 1
    24    7   24 1
    25    7   25 1
    26    8   26 1
    27    8   27 1
    28    8   28 1
    29    9   29 1
    30    9   30 1
    31   10   31 1
    32   10   32 1
@<TRIPOS>MOLECULE
*****
   32    32     0     0     0
SMALL
NO_CHARGES

@<TRIPOS>ATOM
      1 C1         -0.7895    2.7840    2.6503 C.ar      1 <0>         0.0000
      2 C2          0.9871    2.4427    4.2516 C.ar      1 <0>         0.0000
      3 C3         -0.4845    1.5618    2.0512 C.ar      1 <0>         0.0000
      4 C4          1.2922    1.2205    3.6525 C.ar      1 <0>         0.0000
      5 C5         -0.0537    3.2244    3.7504 C.ar      1 <0>         0.0000
      6 C6          0.5564    0.7801    2.5524 C.ar      1 <0>         0.0000
      7 C7         -0.1849    0.0697   -2.4016 C.3       1 <0>         0.0000
      8 C8         -3.0680   -2.0405    0.6713 C.3       1 <0>         0.0000
      9 C9          1.0649    0.6361   -1.7621 C.3       1 <0>         0.0000
     10 C10        -1.5805   -2.0713    0.9510 C.3       1 <0>         0.0000
     11 N1         -0.3639    4.4686    4.3604 N.pl3     1 <0>         0.0000
     12 O1         -1.3040    5.1568    3.8942 O.3       1 <0>         0.0000
     13 O2          0.3108    4.8463    5.3487 O.2       1 <0>         0.0000
     14 O3          1.4463   -1.9247   -0.1105 O.2       1 <0>         0.0000
     15 O4          0.8556   -0.4191    1.9646 O.3       1 <0>         0.0000
     16 O5          0.8996    0.6457   -0.3547 O.3       1 <0>         0.0000
     17 O6         -0.9623   -0.9855    0.2818 O.3       1 <0>         0.0000
     18 P1          0.6399   -0.7644    0.4012 P.3       1 <0>         0.0000
     19 H1         -1.6035    3.3834    2.2500 H         1 <0>         0.0000
     20 H2          1.5691    2.7741    5.1081 H         1 <0>         0.0000
     21 H3         -1.0614    1.2239    1.1947 H         1 <0>         0.0000
     22 H4          2.1044    0.6161    4.0472 H         1 <0>         0.0000
     23 H5         -0.3658   -0.9547   -2.0645 H         1 <0>         0.0000
     24 H6         -1.0574    0.6829   -2.1532 H         1 <0>         0.0000
     25 H7         -0.0948    0.0718   -3.4929 H         1 <0>         0.0000
     26 H8         -3.5136   -1.1092    1.0317 H         1 <0>         0.0000
     27 H9         -3.2608   -2.1323   -0.4027 H         1 <0>         0.0000
     28 H10        -3.5696   -2.8836    1.1579 H         1 <0>         0.0000
     29 H11         1.2400    1.6607   -2.1034 H         1 <0>         0.0000
     30 H12         1.9355    0.0218   -2.0106 H         1 <0>         0.0000
     31 H13        -1.1411   -3.0052    0.5880 H         1 <0>         0.0000
     32 H14        -1.3896   -1.9787    2.0243 H         1 <0>         0.0000
@<TRIPOS>BOND
     1    1    3 ar
     2    1    5 ar
     3    2    4 ar
     4    2    5 ar
     5    3    6 ar
     6    4    6 ar
     7    5   11 1
     8    6   15 1
     9    7    9 1
    10    8   10 1
    11    9   16 1
    12   10   17 1
    13   11   12 1
    14   11   13 2
    15   14   18 2
    16   15   18 1
    17   16   18 1
    18   17   18 1
    19    1   19 1
    20    2   20 1
    21    3   21 1
    22    4   22 1
    23    7   23 1
    24    7   24 1
    25    7   25 1
    26    8   26 1
    27    8   27 1
    28    8   28 1
    29    9   29 1
    30    9   30 1
    31   10   31 1
    32   10   32 1
@<TRIPOS>MOLECULE
*****
   32    32     0     0     0
SMALL
NO_CHARGES

@<TRIPOS>ATOM
      1 C1          2.3828   -2.7714    4.3250 C.ar      1 <0>         0.0000
      2 C2         -0.0109   -2.7566    4.6521 C.ar      1 <0>         0.0000
      3 C3          2.2497   -1.8264    3.3077 C.ar      1 <0>         0.0000
      4 C4         -0.1441   -1.8116    3.6349 C.ar      1 <0>         0.0000
      5 C5          1.2526   -3.2365    4.9972 C.ar      1 <0>         0.0000
      6 C6          0.9862   -1.3465    2.9627 C.ar      1 <0>         0.0000
      7 C7          0.5787    2.9742   -0.7699 C.3       1 <0>         0.0000
      8 C8         -3.0270   -2.1796    0.3797 C.3       1 <0>         0.0000
      9 C9          0.1738    1.7847    0.0744 C.3       1 <0>         0.0000
     10 C10        -1.5270   -2.2533    0.5694 C.3       1 <0>         0.0000
     11 N1          1.3878   -4.1987    6.0326 N.pl3     1 <0>         0.0000
     12 O1          2.5332   -4.6177    6.3277 O.3       1 <0>         0.0000
     13 O2          0.3581   -4.6041    6.6242 O.2       1 <0>         0.0000
     14 O3          1.4463   -1.9247   -0.1105 O.2       1 <0>         0.0000
     15 O4          0.8556   -0.4191    1.9646 O.3       1 <0>         0.0000
     16 O5          0.8996    0.6457   -0.3547 O.3       1 <0>         0.0000
     17 O6         -0.9623   -0.9855    0.2818 O.3       1 <0>         0.0000
     18 P1          0.6399   -0.7644    0.4012 P.3       1 <0>         0.0000
     19 H1          3.3734   -3.1369    4.5843 H         1 <0>         0.0000
     20 H2         -0.9003   -3.1109    5.1674 H         1 <0>         0.0000
     21 H3          3.1339   -1.4675    2.7879 H         1 <0>         0.0000
     22 H4         -1.1310   -1.4418    3.3703 H         1 <0>         0.0000
     23 H5          1.6473    3.1815   -0.6651 H         1 <0>         0.0000
     24 H6          0.3559    2.7916   -1.8263 H         1 <0>         0.0000
     25 H7          0.0154    3.8660   -0.4754 H         1 <0>         0.0000
     26 H8         -3.4695   -1.4398    1.0526 H         1 <0>         0.0000
     27 H9         -3.2728   -1.9101   -0.6527 H         1 <0>         0.0000
     28 H10        -3.4887   -3.1536    0.5729 H         1 <0>         0.0000
     29 H11        -0.8959    1.5828   -0.0350 H         1 <0>         0.0000
     30 H12         0.3978    1.9686    1.1294 H         1 <0>         0.0000
     31 H13        -1.0907   -2.9950   -0.1065 H         1 <0>         0.0000
     32 H14        -1.2832   -2.5218    1.6016 H         1 <0>         0.0000
@<TRIPOS>BOND
     1    1    3 ar
     2    1    5 ar
     3    2    4 ar
     4    2    5 ar
     5    3    6 ar
     6    4    6 ar
     7    5   11 1
     8    6   15 1
     9    7    9 1
    10    8   10 1
    11    9   16 1
    12   10   17 1
    13   11   12 1
    14   11   13 2
    15   14   18 2
    16   15   18 1
    17   16   18 1
    18   17   18 1
    19    1   19 1
    20    2   20 1
    21    3   21 1
    22    4   22 1
    23    7   23 1
    24    7   24 1
    25    7   25 1
    26    8   26 1
    27    8   27 1
    28    8   28 1
    29    9   29 1
    30    9   30 1
    31   10   31 1
    32   10   32 1
@<TRIPOS>MOLECULE
*****
   32    32     0     0     0
SMALL
NO_CHARGES

@<TRIPOS>ATOM
      1 C1          0.4869   -3.5298    3.8684 C.ar      1 <0>         0.0000
      2 C2          1.8850   -1.9985    5.1084 C.ar      1 <0>         0.0000
      3 C3          0.3537   -2.5847    2.8513 C.ar      1 <0>         0.0000
      4 C4          1.7519   -1.0533    4.0912 C.ar      1 <0>         0.0000
      5 C5          1.2525   -3.2367    4.9970 C.ar      1 <0>         0.0000
      6 C6          0.9862   -1.3465    2.9627 C.ar      1 <0>         0.0000
      7 C7          0.8669    3.0215   -0.5828 C.3       1 <0>         0.0000
      8 C8         -0.9608   -2.4462   -1.6064 C.3       1 <0>         0.0000
      9 C9          0.5335    1.8437    0.3079 C.3       1 <0>         0.0000
     10 C10        -1.5563   -1.1996   -0.9873 C.3       1 <0>         0.0000
     11 N1          1.3881   -4.1986    6.0327 N.pl3     1 <0>         0.0000
     12 O1          0.8110   -5.3064    5.9132 O.3       1 <0>         0.0000
     13 O2          2.0811   -3.9144    7.0395 O.2       1 <0>         0.0000
     14 O3          1.4463   -1.9247   -0.1105 O.2       1 <0>         0.0000
     15 O4          0.8556   -0.4191    1.9646 O.3       1 <0>         0.0000
     16 O5          0.8996    0.6457   -0.3547 O.3       1 <0>         0.0000
     17 O6         -0.9623   -0.9855    0.2818 O.3       1 <0>         0.0000
     18 P1          0.6399   -0.7644    0.4012 P.3       1 <0>         0.0000
     19 H1         -0.0110   -4.4912    3.7689 H         1 <0>         0.0000
     20 H2          2.4844   -1.7567    5.9827 H         1 <0>         0.0000
     21 H3         -0.2437   -2.8189    1.9744 H         1 <0>         0.0000
     22 H4          2.2467   -0.0904    4.1839 H         1 <0>         0.0000
     23 H5          1.9382    3.0559   -0.7994 H         1 <0>         0.0000
     24 H6          0.3170    2.9589   -1.5276 H         1 <0>         0.0000
     25 H7          0.5727    3.9619   -0.1050 H         1 <0>         0.0000
     26 H8          0.1190   -2.3376   -1.7404 H         1 <0>         0.0000
     27 H9         -1.1527   -3.3201   -0.9752 H         1 <0>         0.0000
     28 H10        -1.4189   -2.6500   -2.5799 H         1 <0>         0.0000
     29 H11        -0.5393    1.8151    0.5207 H         1 <0>         0.0000
     30 H12         1.0843    1.9074    1.2510 H         1 <0>         0.0000
     31 H13        -2.6363   -1.3147   -0.8560 H         1 <0>         0.0000
     32 H14        -1.3629   -0.3273   -1.6187 H         1 <0>         0.0000
@<TRIPOS>BOND
     1    1    3 ar
     2    1    5 ar
     3    2    4 ar
     4    2    5 ar
     5    3    6 ar
     6    4    6 ar
     7    5   11 1
     8    6   15 1
     9    7    9 1
    10    8   10 1
    11    9   16 1
    12   10   17 1
    13   11   12 1
    14   11   13 2
    15   14   18 2
    16   15   18 1
    17   16   18 1
    18   17   18 1
    19    1   19 1
    20    2   20 1
    21    3   21 1
    22    4   22 1
    23    7   23 1
    24    7   24 1
    25    7   25 1
    26    8   26 1
    27    8   27 1
    28    8   28 1
    29    9   29 1
    30    9   30 1
    31   10   31 1
    32   10   32 1
@<TRIPOS>MOLECULE
*****
   32    32     0     0     0
SMALL
NO_CHARGES

@<TRIPOS>ATOM
      1 C1          4.3497   -0.5877    3.0599 C.ar      1 <0>         0.0000
      2 C2          3.4012    1.5255    3.7466 C.ar      1 <0>         0.0000
      3 C3          3.1326   -0.9456    2.4801 C.ar      1 <0>         0.0000
      4 C4          2.1841    1.1676    3.1668 C.ar      1 <0>         0.0000
      5 C5          4.4840    0.6478    3.6932 C.ar      1 <0>         0.0000
      6 C6          2.0498   -0.0680    2.5336 C.ar      1 <0>         0.0000
      7 C7          2.2245    2.3317   -1.4032 C.3       1 <0>         0.0000
      8 C8         -1.0725   -3.1717    1.2340 C.3       1 <0>         0.0000
      9 C9          2.2277    0.9829   -0.7159 C.3       1 <0>         0.0000
     10 C10        -1.6441   -1.7700    1.2455 C.3       1 <0>         0.0000
     11 N1          5.7228    1.0124    4.2837 N.pl3     1 <0>         0.0000
     12 O1          6.6845    0.2085    4.2248 O.3       1 <0>         0.0000
     13 O2          5.8220    2.1284    4.8488 O.2       1 <0>         0.0000
     14 O3          1.4463   -1.9247   -0.1105 O.2       1 <0>         0.0000
     15 O4          0.8556   -0.4191    1.9646 O.3       1 <0>         0.0000
     16 O5          0.8996    0.6457   -0.3547 O.3       1 <0>         0.0000
     17 O6         -0.9623   -0.9855    0.2818 O.3       1 <0>         0.0000
     18 P1          0.6399   -0.7644    0.4012 P.3       1 <0>         0.0000
     19 H1          5.1859   -1.2810    3.0109 H         1 <0>         0.0000
     20 H2          3.4919    2.4914    4.2375 H         1 <0>         0.0000
     21 H3          3.0342   -1.9094    1.9879 H         1 <0>         0.0000
     22 H4          1.3441    1.8554    3.2120 H         1 <0>         0.0000
     23 H5          1.6123    2.3067   -2.3089 H         1 <0>         0.0000
     24 H6          1.8340    3.1051   -0.7337 H         1 <0>         0.0000
     25 H7          3.2431    2.6294   -1.6734 H         1 <0>         0.0000
     26 H8         -1.1994   -3.6368    0.2525 H         1 <0>         0.0000
     27 H9         -0.0063   -3.1559    1.4826 H         1 <0>         0.0000
     28 H10        -1.5656   -3.7956    1.9869 H         1 <0>         0.0000
     29 H11         2.8418    1.0147    0.1891 H         1 <0>         0.0000
     30 H12         2.6174    0.2112   -1.3864 H         1 <0>         0.0000
     31 H13        -1.5139   -1.3105    2.2299 H         1 <0>         0.0000
     32 H14        -2.7092   -1.7875    0.9962 H         1 <0>         0.0000
@<TRIPOS>BOND
     1    1    3 ar
     2    1    5 ar
     3    2    4 ar
     4    2    5 ar
     5    3    6 ar
     6    4    6 ar
     7    5   11 1
     8    6   15 1
     9    7    9 1
    10    8   10 1
    11    9   16 1
    12   10   17 1
    13   11   12 1
    14   11   13 2
    15   14   18 2
    16   15   18 1
    17   16   18 1
    18   17   18 1
    19    1   19 1
    20    2   20 1
    21    3   21 1
    22    4   22 1
    23    7   23 1
    24    7   24 1
    25    7   25 1
    26    8   26 1
    27    8   27 1
    28    8   28 1
    29    9   29 1
    30    9   30 1
    31   10   31 1
    32   10   32 1
@<TRIPOS>MOLECULE
*****
   32    32     0     0     0
SMALL
NO_CHARGES

@<TRIPOS>ATOM
      1 C1          2.1644   -3.2146    3.9417 C.ar      1 <0>         0.0000
      2 C2          0.2076   -2.3134    5.0353 C.ar      1 <0>         0.0000
      3 C3          2.0312   -2.2696    2.9245 C.ar      1 <0>         0.0000
      4 C4          0.0744   -1.3684    4.0181 C.ar      1 <0>         0.0000
      5 C5          1.2526   -3.2366    4.9971 C.ar      1 <0>         0.0000
      6 C6          0.9862   -1.3465    2.9627 C.ar      1 <0>         0.0000
      7 C7          3.0787    1.0430    0.5347 C.3       1 <0>         0.0000
      8 C8         -3.0270   -2.1796    0.3797 C.3       1 <0>         0.0000
      9 C9          2.2277    0.9829   -0.7159 C.3       1 <0>         0.0000
     10 C10        -1.5270   -2.2533    0.5694 C.3       1 <0>         0.0000
     11 N1          1.3878   -4.1986    6.0327 N.pl3     1 <0>         0.0000
     12 O1          2.3347   -5.0203    5.9796 O.3       1 <0>         0.0000
     13 O2          0.5564   -4.2012    6.9726 O.2       1 <0>         0.0000
     14 O3          1.4463   -1.9247   -0.1105 O.2       1 <0>         0.0000
     15 O4          0.8556   -0.4191    1.9646 O.3       1 <0>         0.0000
     16 O5          0.8996    0.6457   -0.3547 O.3       1 <0>         0.0000
     17 O6         -0.9623   -0.9855    0.2818 O.3       1 <0>         0.0000
     18 P1          0.6399   -0.7644    0.4012 P.3       1 <0>         0.0000
     19 H1          2.9837   -3.9282    3.9001 H         1 <0>         0.0000
     20 H2         -0.5104   -2.3196    5.8517 H         1 <0>         0.0000
     21 H3          2.7448   -2.2572    2.1052 H         1 <0>         0.0000
     22 H4         -0.7419   -0.6521    4.0531 H         1 <0>         0.0000
     23 H5          2.7021    1.8013    1.2268 H         1 <0>         0.0000
     24 H6          3.0869    0.0732    1.0430 H         1 <0>         0.0000
     25 H7          4.1180    1.2792    0.2832 H         1 <0>         0.0000
     26 H8         -3.4695   -1.4398    1.0526 H         1 <0>         0.0000
     27 H9         -3.2728   -1.9101   -0.6527 H         1 <0>         0.0000
     28 H10        -3.4887   -3.1536    0.5729 H         1 <0>         0.0000
     29 H11         2.6097    0.2226   -1.4038 H         1 <0>         0.0000
     30 H12         2.2200    1.9528   -1.2221 H         1 <0>         0.0000
     31 H13        -1.0907   -2.9950   -0.1065 H         1 <0>         0.0000
     32 H14        -1.2832   -2.5218    1.6016 H         1 <0>         0.0000
@<TRIPOS>BOND
     1    1    3 ar
     2    1    5 ar
     3    2    4 ar
     4    2    5 ar
     5    3    6 ar
     6    4    6 ar
     7    5   11 1
     8    6   15 1
     9    7    9 1
    10    8   10 1
    11    9   16 1
    12   10   17 1
    13   11   12 1
    14   11   13 2
    15   14   18 2
    16   15   18 1
    17   16   18 1
    18   17   18 1
    19    1   19 1
    20    2   20 1
    21    3   21 1
    22    4   22 1
    23    7   23 1
    24    7   24 1
    25    7   25 1
    26    8   26 1
    27    8   27 1
    28    8   28 1
    29    9   29 1
    30    9   30 1
    31   10   31 1
    32   10   32 1
@<TRIPOS>MOLECULE
*****
   32    32     0     0     0
SMALL
NO_CHARGES

@<TRIPOS>ATOM
      1 C1          1.0698   -3.6525    3.6782 C.ar      1 <0>         0.0000
      2 C2          1.3022   -1.8757    5.2987 C.ar      1 <0>         0.0000
      3 C3          0.9366   -2.7074    2.6610 C.ar      1 <0>         0.0000
      4 C4          1.1691   -0.9306    4.2815 C.ar      1 <0>         0.0000
      5 C5          1.2526   -3.2367    4.9970 C.ar      1 <0>         0.0000
      6 C6          0.9862   -1.3465    2.9627 C.ar      1 <0>         0.0000
      7 C7          1.2927    2.0538   -2.2415 C.3       1 <0>         0.0000
      8 C8         -3.0133   -1.6852   -0.7194 C.3       1 <0>         0.0000
      9 C9          1.0649    0.6361   -1.7621 C.3       1 <0>         0.0000
     10 C10        -1.5090   -1.6064   -0.8692 C.3       1 <0>         0.0000
     11 N1          1.3880   -4.1986    6.0327 N.pl3     1 <0>         0.0000
     12 O1          1.3404   -5.4179    5.7403 O.3       1 <0>         0.0000
     13 O2          1.5512   -3.8030    7.2124 O.2       1 <0>         0.0000
     14 O3          1.4463   -1.9247   -0.1105 O.2       1 <0>         0.0000
     15 O4          0.8556   -0.4191    1.9646 O.3       1 <0>         0.0000
     16 O5          0.8996    0.6457   -0.3547 O.3       1 <0>         0.0000
     17 O6         -0.9623   -0.9855    0.2818 O.3       1 <0>         0.0000
     18 P1          0.6399   -0.7644    0.4012 P.3       1 <0>         0.0000
     19 H1          1.0296   -4.7101    3.4293 H         1 <0>         0.0000
     20 H2          1.4437   -1.5377    6.3224 H         1 <0>         0.0000
     21 H3          0.7948   -3.0374    1.6355 H         1 <0>         0.0000
     22 H4          1.2082    0.1282    4.5228 H         1 <0>         0.0000
     23 H5          0.4390    2.6911   -1.9948 H         1 <0>         0.0000
     24 H6          2.1932    2.4762   -1.7836 H         1 <0>         0.0000
     25 H7          1.4473    2.0744   -3.3254 H         1 <0>         0.0000
     26 H8         -3.2875   -2.2758    0.1591 H         1 <0>         0.0000
     27 H9         -3.4444   -0.6836   -0.6208 H         1 <0>         0.0000
     28 H10        -3.4660   -2.1406   -1.6065 H         1 <0>         0.0000
     29 H11         1.9223    0.0041   -2.0120 H         1 <0>         0.0000
     30 H12         0.1644    0.2159   -2.2200 H         1 <0>         0.0000
     31 H13        -1.2415   -1.0144   -1.7496 H         1 <0>         0.0000
     32 H14        -1.0797   -2.6080   -0.9669 H         1 <0>         0.0000
@<TRIPOS>BOND
     1    1    3 ar
     2    1    5 ar
     3    2    4 ar
     4    2    5 ar
     5    3    6 ar
     6    4    6 ar
     7    5   11 1
     8    6   15 1
     9    7    9 1
    10    8   10 1
    11    9   16 1
    12   10   17 1
    13   11   12 1
    14   11   13 2
    15   14   18 2
    16   15   18 1
    17   16   18 1
    18   17   18 1
    19    1   19 1
    20    2   20 1
    21    3   21 1
    22    4   22 1
    23    7   23 1
    24    7   24 1
    25    7   25 1
    26    8   26 1
    27    8   27 1
    28    8   28 1
    29    9   29 1
    30    9   30 1
    31   10   31 1
    32   10   32 1
@<TRIPOS>MOLECULE
*****
   32    32     0     0     0
SMALL
NO_CHARGES

@<TRIPOS>ATOM
      1 C1          2.1644   -3.2146    3.9417 C.ar      1 <0>         0.0000
      2 C2          0.2076   -2.3134    5.0353 C.ar      1 <0>         0.0000
      3 C3          2.0312   -2.2696    2.9245 C.ar      1 <0>         0.0000
      4 C4          0.0744   -1.3684    4.0181 C.ar      1 <0>         0.0000
      5 C5          1.2526   -3.2366    4.9971 C.ar      1 <0>         0.0000
      6 C6          0.9862   -1.3465    2.9627 C.ar      1 <0>         0.0000
      7 C7         -0.1849    0.0697   -2.4016 C.3       1 <0>         0.0000
      8 C8         -3.0270   -2.1796    0.3797 C.3       1 <0>         0.0000
      9 C9          1.0649    0.6361   -1.7621 C.3       1 <0>         0.0000
     10 C10        -1.5270   -2.2533    0.5694 C.3       1 <0>         0.0000
     11 N1          1.3878   -4.1986    6.0327 N.pl3     1 <0>         0.0000
     12 O1          2.3347   -5.0203    5.9796 O.3       1 <0>         0.0000
     13 O2          0.5564   -4.2012    6.9726 O.2       1 <0>         0.0000
     14 O3          1.4463   -1.9247   -0.1105 O.2       1 <0>         0.0000
     15 O4          0.8556   -0.4191    1.9646 O.3       1 <0>         0.0000
     16 O5          0.8996    0.6457   -0.3547 O.3       1 <0>         0.0000
     17 O6         -0.9623   -0.9855    0.2818 O.3       1 <0>         0.0000
     18 P1          0.6399   -0.7644    0.4012 P.3       1 <0>         0.0000
     19 H1          2.9837   -3.9282    3.9001 H         1 <0>         0.0000
     20 H2         -0.5104   -2.3196    5.8517 H         1 <0>         0.0000
     21 H3          2.7448   -2.2572    2.1052 H         1 <0>         0.0000
     22 H4         -0.7419   -0.6521    4.0531 H         1 <0>         0.0000
     23 H5         -0.3658   -0.9547   -2.0645 H         1 <0>         0.0000
     24 H6         -1.0574    0.6829   -2.1532 H         1 <0>         0.0000
     25 H7         -0.0948    0.0718   -3.4929 H         1 <0>         0.0000
     26 H8         -3.4695   -1.4398    1.0526 H         1 <0>         0.0000
     27 H9         -3.2728   -1.9101   -0.6527 H         1 <0>         0.0000
     28 H10        -3.4887   -3.1536    0.5729 H         1 <0>         0.0000
     29 H11         1.2400    1.6607   -2.1034 H         1 <0>         0.0000
     30 H12         1.9355    0.0218   -2.0106 H         1 <0>         0.0000
     31 H13        -1.0907   -2.9950   -0.1065 H         1 <0>         0.0000
     32 H14        -1.2832   -2.5218    1.6016 H         1 <0>         0.0000
@<TRIPOS>BOND
     1    1    3 ar
     2    1    5 ar
     3    2    4 ar
     4    2    5 ar
     5    3    6 ar
     6    4    6 ar
     7    5   11 1
     8    6   15 1
     9    7    9 1
    10    8   10 1
    11    9   16 1
    12   10   17 1
    13   11   12 1
    14   11   13 2
    15   14   18 2
    16   15   18 1
    17   16   18 1
    18   17   18 1
    19    1   19 1
    20    2   20 1
    21    3   21 1
    22    4   22 1
    23    7   23 1
    24    7   24 1
    25    7   25 1
    26    8   26 1
    27    8   27 1
    28    8   28 1
    29    9   29 1
    30    9   30 1
    31   10   31 1
    32   10   32 1
@<TRIPOS>MOLECULE
*****
   32    32     0     0     0
SMALL
NO_CHARGES

@<TRIPOS>ATOM
      1 C1          4.4448   -0.8260    2.5882 C.ar      1 <0>         0.0000
      2 C2          3.3513   -0.1595    4.6369 C.ar      1 <0>         0.0000
      3 C3          3.2186   -0.7964    1.9241 C.ar      1 <0>         0.0000
      4 C4          2.1251   -0.1299    3.9728 C.ar      1 <0>         0.0000
      5 C5          4.5112   -0.5076    3.9447 C.ar      1 <0>         0.0000
      6 C6          2.0588   -0.4483    2.6163 C.ar      1 <0>         0.0000
      7 C7          1.2927    2.0538   -2.2415 C.3       1 <0>         0.0000
      8 C8         -3.0133   -1.6852   -0.7194 C.3       1 <0>         0.0000
      9 C9          1.0649    0.6361   -1.7621 C.3       1 <0>         0.0000
     10 C10        -1.5090   -1.6064   -0.8692 C.3       1 <0>         0.0000
     11 N1          5.7593   -0.5379    4.6211 N.pl3     1 <0>         0.0000
     12 O1          6.7909   -0.8537    3.9802 O.3       1 <0>         0.0000
     13 O2          5.7967   -0.2484    5.8416 O.2       1 <0>         0.0000
     14 O3          1.4463   -1.9247   -0.1105 O.2       1 <0>         0.0000
     15 O4          0.8556   -0.4191    1.9646 O.3       1 <0>         0.0000
     16 O5          0.8996    0.6457   -0.3547 O.3       1 <0>         0.0000
     17 O6         -0.9623   -0.9855    0.2818 O.3       1 <0>         0.0000
     18 P1          0.6399   -0.7644    0.4012 P.3       1 <0>         0.0000
     19 H1          5.3413   -1.0986    2.0368 H         1 <0>         0.0000
     20 H2          3.3886    0.0904    5.6944 H         1 <0>         0.0000
     21 H3          3.1733   -1.0450    0.8673 H         1 <0>         0.0000
     22 H4          1.2250    0.1416    4.5175 H         1 <0>         0.0000
     23 H5          0.4390    2.6911   -1.9948 H         1 <0>         0.0000
     24 H6          2.1932    2.4762   -1.7836 H         1 <0>         0.0000
     25 H7          1.4473    2.0744   -3.3254 H         1 <0>         0.0000
     26 H8         -3.2875   -2.2758    0.1591 H         1 <0>         0.0000
     27 H9         -3.4444   -0.6836   -0.6208 H         1 <0>         0.0000
     28 H10        -3.4660   -2.1406   -1.6065 H         1 <0>         0.0000
     29 H11         1.9223    0.0041   -2.0120 H         1 <0>         0.0000
     30 H12         0.1644    0.2159   -2.2200 H         1 <0>         0.0000
     31 H13        -1.2415   -1.0144   -1.7496 H         1 <0>         0.0000
     32 H14        -1.0797   -2.6080   -0.9669 H         1 <0>         0.0000
@<TRIPOS>BOND
     1    1    3 ar
     2    1    5 ar
     3    2    4 ar
     4    2    5 ar
     5    3    6 ar
     6    4    6 ar
     7    5   11 1
     8    6   15 1
     9    7    9 1
    10    8   10 1
    11    9   16 1
    12   10   17 1
    13   11   12 1
    14   11   13 2
    15   14   18 2
    16   15   18 1
    17   16   18 1
    18   17   18 1
    19    1   19 1
    20    2   20 1
    21    3   21 1
    22    4   22 1
    23    7   23 1
    24    7   24 1
    25    7   25 1
    26    8   26 1
    27    8   27 1
    28    8   28 1
    29    9   29 1
    30    9   30 1
    31   10   31 1
    32   10   32 1
@<TRIPOS>MOLECULE
*****
   32    32     0     0     0
SMALL
NO_CHARGES

@<TRIPOS>ATOM
      1 C1          4.4166    0.3709    2.3278 C.ar      1 <0>         0.0000
      2 C2          3.3342    0.5671    4.4788 C.ar      1 <0>         0.0000
      3 C3          3.1996    0.0129    1.7480 C.ar      1 <0>         0.0000
      4 C4          2.1171    0.2092    3.8990 C.ar      1 <0>         0.0000
      5 C5          4.4840    0.6480    3.6932 C.ar      1 <0>         0.0000
      6 C6          2.0498   -0.0680    2.5336 C.ar      1 <0>         0.0000
      7 C7          1.5182   -0.2787   -2.4666 C.3       1 <0>         0.0000
      8 C8         -3.0270   -2.1796    0.3797 C.3       1 <0>         0.0000
      9 C9          0.6411    0.7228   -1.7459 C.3       1 <0>         0.0000
     10 C10        -1.5270   -2.2533    0.5694 C.3       1 <0>         0.0000
     11 N1          5.7228    1.0122    4.2838 N.pl3     1 <0>         0.0000
     12 O1          6.7454    1.0791    3.5597 O.3       1 <0>         0.0000
     13 O2          5.7614    1.2570    5.5140 O.2       1 <0>         0.0000
     14 O3          1.4463   -1.9247   -0.1105 O.2       1 <0>         0.0000
     15 O4          0.8556   -0.4191    1.9646 O.3       1 <0>         0.0000
     16 O5          0.8996    0.6457   -0.3547 O.3       1 <0>         0.0000
     17 O6         -0.9623   -0.9855    0.2818 O.3       1 <0>         0.0000
     18 P1          0.6399   -0.7644    0.4012 P.3       1 <0>         0.0000
     19 H1          5.3052    0.4305    1.7041 H         1 <0>         0.0000
     20 H2          3.3725    0.7799    5.5444 H         1 <0>         0.0000
     21 H3          3.1533   -0.2015    0.6837 H         1 <0>         0.0000
     22 H4          1.2249    0.1475    4.5162 H         1 <0>         0.0000
     23 H5          2.5769   -0.0642   -2.2959 H         1 <0>         0.0000
     24 H6          1.3039   -1.2964   -2.1240 H         1 <0>         0.0000
     25 H7          1.3228   -0.2578   -3.5439 H         1 <0>         0.0000
     26 H8         -3.4695   -1.4398    1.0526 H         1 <0>         0.0000
     27 H9         -3.2728   -1.9101   -0.6527 H         1 <0>         0.0000
     28 H10        -3.4887   -3.1536    0.5729 H         1 <0>         0.0000
     29 H11        -0.4162    0.5026   -1.9207 H         1 <0>         0.0000
     30 H12         0.8571    1.7391   -2.0888 H         1 <0>         0.0000
     31 H13        -1.0907   -2.9950   -0.1065 H         1 <0>         0.0000
     32 H14        -1.2832   -2.5218    1.6016 H         1 <0>         0.0000
@<TRIPOS>BOND
     1    1    3 ar
     2    1    5 ar
     3    2    4 ar
     4    2    5 ar
     5    3    6 ar
     6    4    6 ar
     7    5   11 1
     8    6   15 1
     9    7    9 1
    10    8   10 1
    11    9   16 1
    12   10   17 1
    13   11   12 1
    14   11   13 2
    15   14   18 2
    16   15   18 1
    17   16   18 1
    18   17   18 1
    19    1   19 1
    20    2   20 1
    21    3   21 1
    22    4   22 1
    23    7   23 1
    24    7   24 1
    25    7   25 1
    26    8   26 1
    27    8   27 1
    28    8   28 1
    29    9   29 1
    30    9   30 1
    31   10   31 1
    32   10   32 1
@<TRIPOS>MOLECULE
*****
   32    32     0     0     0
SMALL
NO_CHARGES

@<TRIPOS>ATOM
      1 C1         -0.7895    2.7840    2.6503 C.ar      1 <0>         0.0000
      2 C2          0.9871    2.4427    4.2516 C.ar      1 <0>         0.0000
      3 C3         -0.4845    1.5618    2.0512 C.ar      1 <0>         0.0000
      4 C4          1.2922    1.2205    3.6525 C.ar      1 <0>         0.0000
      5 C5         -0.0537    3.2244    3.7504 C.ar      1 <0>         0.0000
      6 C6          0.5564    0.7801    2.5524 C.ar      1 <0>         0.0000
      7 C7          2.2086    2.4977   -1.0990 C.3       1 <0>         0.0000
      8 C8         -1.2055   -2.6228    2.0018 C.3       1 <0>         0.0000
      9 C9          2.2078    1.1900   -0.3364 C.3       1 <0>         0.0000
     10 C10        -1.5270   -2.2533    0.5694 C.3       1 <0>         0.0000
     11 N1         -0.3639    4.4686    4.3604 N.pl3     1 <0>         0.0000
     12 O1         -1.3040    5.1568    3.8942 O.3       1 <0>         0.0000
     13 O2          0.3108    4.8463    5.3487 O.2       1 <0>         0.0000
     14 O3          1.4463   -1.9247   -0.1105 O.2       1 <0>         0.0000
     15 O4          0.8556   -0.4191    1.9646 O.3       1 <0>         0.0000
     16 O5          0.8996    0.6457   -0.3547 O.3       1 <0>         0.0000
     17 O6         -0.9623   -0.9855    0.2818 O.3       1 <0>         0.0000
     18 P1          0.6399   -0.7644    0.4012 P.3       1 <0>         0.0000
     19 H1         -1.6035    3.3834    2.2500 H         1 <0>         0.0000
     20 H2          1.5691    2.7741    5.1081 H         1 <0>         0.0000
     21 H3         -1.0614    1.2239    1.1947 H         1 <0>         0.0000
     22 H4          2.1044    0.6161    4.0472 H         1 <0>         0.0000
     23 H5          1.9097    2.3428   -2.1395 H         1 <0>         0.0000
     24 H6          1.5219    3.2145   -0.6369 H         1 <0>         0.0000
     25 H7          3.2040    2.9539   -1.0817 H         1 <0>         0.0000
     26 H8         -0.1245   -2.6789    2.1571 H         1 <0>         0.0000
     27 H9         -1.6244   -1.8850    2.6940 H         1 <0>         0.0000
     28 H10        -1.6501   -3.5897    2.2599 H         1 <0>         0.0000
     29 H11         2.5076    1.3519    0.7033 H         1 <0>         0.0000
     30 H12         2.8938    0.4747   -0.7999 H         1 <0>         0.0000
     31 H13        -2.6095   -2.1989    0.4208 H         1 <0>         0.0000
     32 H14        -1.1071   -2.9910   -0.1209 H         1 <0>         0.0000
@<TRIPOS>BOND
     1    1    3 ar
     2    1    5 ar
     3    2    4 ar
     4    2    5 ar
     5    3    6 ar
     6    4    6 ar
     7    5   11 1
     8    6   15 1
     9    7    9 1
    10    8   10 1
    11    9   16 1
    12   10   17 1
    13   11   12 1
    14   11   13 2
    15   14   18 2
    16   15   18 1
    17   16   18 1
    18   17   18 1
    19    1   19 1
    20    2   20 1
    21    3   21 1
    22    4   22 1
    23    7   23 1
    24    7   24 1
    25    7   25 1
    26    8   26 1
    27    8   27 1
    28    8   28 1
    29    9   29 1
    30    9   30 1
    31   10   31 1
    32   10   32 1
@<TRIPOS>MOLECULE
*****
   32    32     0     0     0
SMALL
NO_CHARGES

@<TRIPOS>ATOM
      1 C1         -1.6933    2.0271    2.9421 C.ar      1 <0>         0.0000
      2 C2         -0.9953    0.7825    4.8916 C.ar      1 <0>         0.0000
      3 C3         -0.8066    1.2920    2.1553 C.ar      1 <0>         0.0000
      4 C4         -0.1086    0.0474    4.1048 C.ar      1 <0>         0.0000
      5 C5         -1.7876    1.7724    4.3103 C.ar      1 <0>         0.0000
      6 C6         -0.0143    0.3022    2.7366 C.ar      1 <0>         0.0000
      7 C7         -0.1849    0.0697   -2.4016 C.3       1 <0>         0.0000
      8 C8         -3.0270   -2.1796    0.3797 C.3       1 <0>         0.0000
      9 C9          1.0649    0.6361   -1.7621 C.3       1 <0>         0.0000
     10 C10        -1.5270   -2.2533    0.5694 C.3       1 <0>         0.0000
     11 N1         -2.6900    2.5207    5.1115 N.pl3     1 <0>         0.0000
     12 O1         -3.3937    3.4068    4.5691 O.3       1 <0>         0.0000
     13 O2         -2.7588    2.2757    6.3403 O.2       1 <0>         0.0000
     14 O3          1.4463   -1.9247   -0.1105 O.2       1 <0>         0.0000
     15 O4          0.8556   -0.4191    1.9646 O.3       1 <0>         0.0000
     16 O5          0.8996    0.6457   -0.3547 O.3       1 <0>         0.0000
     17 O6         -0.9623   -0.9855    0.2818 O.3       1 <0>         0.0000
     18 P1          0.6399   -0.7644    0.4012 P.3       1 <0>         0.0000
     19 H1         -2.3054    2.7956    2.4763 H         1 <0>         0.0000
     20 H2         -1.0582    0.5739    5.9568 H         1 <0>         0.0000
     21 H3         -0.7379    1.4948    1.0900 H         1 <0>         0.0000
     22 H4          0.5063   -0.7222    4.5635 H         1 <0>         0.0000
     23 H5         -0.3658   -0.9547   -2.0645 H         1 <0>         0.0000
     24 H6         -1.0574    0.6829   -2.1532 H         1 <0>         0.0000
     25 H7         -0.0948    0.0718   -3.4929 H         1 <0>         0.0000
     26 H8         -3.4695   -1.4398    1.0526 H         1 <0>         0.0000
     27 H9         -3.2728   -1.9101   -0.6527 H         1 <0>         0.0000
     28 H10        -3.4887   -3.1536    0.5729 H         1 <0>         0.0000
     29 H11         1.2400    1.6607   -2.1034 H         1 <0>         0.0000
     30 H12         1.9355    0.0218   -2.0106 H         1 <0>         0.0000
     31 H13        -1.0907   -2.9950   -0.1065 H         1 <0>         0.0000
     32 H14        -1.2832   -2.5218    1.6016 H         1 <0>         0.0000
@<TRIPOS>BOND
     1    1    3 ar
     2    1    5 ar
     3    2    4 ar
     4    2    5 ar
     5    3    6 ar
     6    4    6 ar
     7    5   11 1
     8    6   15 1
     9    7    9 1
    10    8   10 1
    11    9   16 1
    12   10   17 1
    13   11   12 1
    14   11   13 2
    15   14   18 2
    16   15   18 1
    17   16   18 1
    18   17   18 1
    19    1   19 1
    20    2   20 1
    21    3   21 1
    22    4   22 1
    23    7   23 1
    24    7   24 1
    25    7   25 1
    26    8   26 1
    27    8   27 1
    28    8   28 1
    29    9   29 1
    30    9   30 1
    31   10   31 1
    32   10   32 1
@<TRIPOS>MOLECULE
*****
   32    32     0     0     0
SMALL
NO_CHARGES

@<TRIPOS>ATOM
      1 C1          4.3497   -0.5877    3.0599 C.ar      1 <0>         0.0000
      2 C2          3.4012    1.5255    3.7466 C.ar      1 <0>         0.0000
      3 C3          3.1326   -0.9456    2.4801 C.ar      1 <0>         0.0000
      4 C4          2.1841    1.1676    3.1668 C.ar      1 <0>         0.0000
      5 C5          4.4840    0.6478    3.6932 C.ar      1 <0>         0.0000
      6 C6          2.0498   -0.0680    2.5336 C.ar      1 <0>         0.0000
      7 C7          1.2927    2.0538   -2.2415 C.3       1 <0>         0.0000
      8 C8         -1.6472    1.2515    0.7566 C.3       1 <0>         0.0000
      9 C9          1.0649    0.6361   -1.7621 C.3       1 <0>         0.0000
     10 C10        -1.8462   -0.2145    1.0776 C.3       1 <0>         0.0000
     11 N1          5.7228    1.0124    4.2837 N.pl3     1 <0>         0.0000
     12 O1          6.6845    0.2085    4.2248 O.3       1 <0>         0.0000
     13 O2          5.8220    2.1284    4.8488 O.2       1 <0>         0.0000
     14 O3          1.4463   -1.9247   -0.1105 O.2       1 <0>         0.0000
     15 O4          0.8556   -0.4191    1.9646 O.3       1 <0>         0.0000
     16 O5          0.8996    0.6457   -0.3547 O.3       1 <0>         0.0000
     17 O6         -0.9623   -0.9855    0.2818 O.3       1 <0>         0.0000
     18 P1          0.6399   -0.7644    0.4012 P.3       1 <0>         0.0000
     19 H1          5.1859   -1.2810    3.0109 H         1 <0>         0.0000
     20 H2          3.4919    2.4914    4.2375 H         1 <0>         0.0000
     21 H3          3.0342   -1.9094    1.9879 H         1 <0>         0.0000
     22 H4          1.3441    1.8554    3.2120 H         1 <0>         0.0000
     23 H5          0.4390    2.6911   -1.9948 H         1 <0>         0.0000
     24 H6          2.1932    2.4762   -1.7836 H         1 <0>         0.0000
     25 H7          1.4473    2.0744   -3.3254 H         1 <0>         0.0000
     26 H8         -0.6215    1.5626    0.9730 H         1 <0>         0.0000
     27 H9         -1.8610    1.4479   -0.2991 H         1 <0>         0.0000
     28 H10        -2.3351    1.8712    1.3413 H         1 <0>         0.0000
     29 H11         1.9223    0.0041   -2.0120 H         1 <0>         0.0000
     30 H12         0.1644    0.2159   -2.2200 H         1 <0>         0.0000
     31 H13        -2.8740   -0.5192    0.8590 H         1 <0>         0.0000
     32 H14        -1.6314   -0.4092    2.1326 H         1 <0>         0.0000
@<TRIPOS>BOND
     1    1    3 ar
     2    1    5 ar
     3    2    4 ar
     4    2    5 ar
     5    3    6 ar
     6    4    6 ar
     7    5   11 1
     8    6   15 1
     9    7    9 1
    10    8   10 1
    11    9   16 1
    12   10   17 1
    13   11   12 1
    14   11   13 2
    15   14   18 2
    16   15   18 1
    17   16   18 1
    18   17   18 1
    19    1   19 1
    20    2   20 1
    21    3   21 1
    22    4   22 1
    23    7   23 1
    24    7   24 1
    25    7   25 1
    26    8   26 1
    27    8   27 1
    28    8   28 1
    29    9   29 1
    30    9   30 1
    31   10   31 1
    32   10   32 1
@<TRIPOS>MOLECULE
*****
   32    32     0     0     0
SMALL
NO_CHARGES

@<TRIPOS>ATOM
      1 C1         -0.9369   -2.6587    4.2467 C.ar      1 <0>         0.0000
      2 C2          1.3795   -2.5237    4.9198 C.ar      1 <0>         0.0000
      3 C3         -0.6812   -1.7832    3.1914 C.ar      1 <0>         0.0000
      4 C4          1.6352   -1.6483    3.8644 C.ar      1 <0>         0.0000
      5 C5          0.0935   -3.0289    5.1110 C.ar      1 <0>         0.0000
      6 C6          0.6048   -1.2781    3.0002 C.ar      1 <0>         0.0000
      7 C7          3.0787    1.0430    0.5347 C.3       1 <0>         0.0000
      8 C8         -3.2636   -0.3588    0.1832 C.3       1 <0>         0.0000
      9 C9          2.2277    0.9829   -0.7159 C.3       1 <0>         0.0000
     10 C10        -1.8366    0.1297    0.3122 C.3       1 <0>         0.0000
     11 N1         -0.1665   -3.9199    6.1856 N.pl3     1 <0>         0.0000
     12 O1         -1.3303   -4.3630    6.3403 O.3       1 <0>         0.0000
     13 O2          0.7746   -4.2397    6.9516 O.2       1 <0>         0.0000
     14 O3          1.4463   -1.9247   -0.1105 O.2       1 <0>         0.0000
     15 O4          0.8556   -0.4191    1.9646 O.3       1 <0>         0.0000
     16 O5          0.8996    0.6457   -0.3547 O.3       1 <0>         0.0000
     17 O6         -0.9623   -0.9855    0.2818 O.3       1 <0>         0.0000
     18 P1          0.6399   -0.7644    0.4012 P.3       1 <0>         0.0000
     19 H1         -1.9437   -3.0454    4.3843 H         1 <0>         0.0000
     20 H2          2.1918   -2.8036    5.5862 H         1 <0>         0.0000
     21 H3         -1.4879   -1.4987    2.5212 H         1 <0>         0.0000
     22 H4          2.6390   -1.2578    3.7209 H         1 <0>         0.0000
     23 H5          2.7021    1.8013    1.2268 H         1 <0>         0.0000
     24 H6          3.0869    0.0732    1.0430 H         1 <0>         0.0000
     25 H7          4.1180    1.2792    0.2832 H         1 <0>         0.0000
     26 H8         -3.4100   -0.8912   -0.7607 H         1 <0>         0.0000
     27 H9         -3.5184   -1.0292    1.0105 H         1 <0>         0.0000
     28 H10        -3.9645    0.4815    0.2271 H         1 <0>         0.0000
     29 H11         2.6097    0.2226   -1.4038 H         1 <0>         0.0000
     30 H12         2.2200    1.9528   -1.2221 H         1 <0>         0.0000
     31 H13        -1.6970    0.6613    1.2582 H         1 <0>         0.0000
     32 H14        -1.5835    0.7988   -0.5156 H         1 <0>         0.0000
@<TRIPOS>BOND
     1    1    3 ar
     2    1    5 ar
     3    2    4 ar
     4    2    5 ar
     5    3    6 ar
     6    4    6 ar
     7    5   11 1
     8    6   15 1
     9    7    9 1
    10    8   10 1
    11    9   16 1
    12   10   17 1
    13   11   12 1
    14   11   13 2
    15   14   18 2
    16   15   18 1
    17   16   18 1
    18   17   18 1
    19    1   19 1
    20    2   20 1
    21    3   21 1
    22    4   22 1
    23    7   23 1
    24    7   24 1
    25    7   25 1
    26    8   26 1
    27    8   27 1
    28    8   28 1
    29    9   29 1
    30    9   30 1
    31   10   31 1
    32   10   32 1
@<TRIPOS>MOLECULE
*****
   32    32     0     0     0
SMALL
NO_CHARGES

@<TRIPOS>ATOM
      1 C1          4.4618   -0.2009    2.5849 C.ar      1 <0>         0.0000
      2 C2          3.3343   -0.7846    4.6404 C.ar      1 <0>         0.0000
      3 C3          3.2356   -0.1713    1.9207 C.ar      1 <0>         0.0000
      4 C4          2.1081   -0.7549    3.9762 C.ar      1 <0>         0.0000
      5 C5          4.5112   -0.5076    3.9447 C.ar      1 <0>         0.0000
      6 C6          2.0588   -0.4483    2.6163 C.ar      1 <0>         0.0000
      7 C7         -0.2657    2.0208    1.2101 C.3       1 <0>         0.0000
      8 C8         -3.0680   -2.0405    0.6713 C.3       1 <0>         0.0000
      9 C9         -0.0853    1.6592   -0.2488 C.3       1 <0>         0.0000
     10 C10        -1.5805   -2.0713    0.9510 C.3       1 <0>         0.0000
     11 N1          5.7593   -0.5380    4.6211 N.pl3     1 <0>         0.0000
     12 O1          6.8063   -0.2859    3.9771 O.3       1 <0>         0.0000
     13 O2          5.7813   -0.8165    5.8445 O.2       1 <0>         0.0000
     14 O3          1.4463   -1.9247   -0.1105 O.2       1 <0>         0.0000
     15 O4          0.8556   -0.4191    1.9646 O.3       1 <0>         0.0000
     16 O5          0.8996    0.6457   -0.3547 O.3       1 <0>         0.0000
     17 O6         -0.9623   -0.9855    0.2818 O.3       1 <0>         0.0000
     18 P1          0.6399   -0.7644    0.4012 P.3       1 <0>         0.0000
     19 H1          5.3716    0.0174    2.0309 H         1 <0>         0.0000
     20 H2          3.3584   -1.0256    5.7003 H         1 <0>         0.0000
     21 H3          3.2035    0.0686    0.8614 H         1 <0>         0.0000
     22 H4          1.1948   -0.9720    4.5234 H         1 <0>         0.0000
     23 H5         -0.5940    1.1534    1.7894 H         1 <0>         0.0000
     24 H6          0.6721    2.3948    1.6339 H         1 <0>         0.0000
     25 H7         -1.0060    2.8202    1.3207 H         1 <0>         0.0000
     26 H8         -3.5136   -1.1092    1.0317 H         1 <0>         0.0000
     27 H9         -3.2608   -2.1323   -0.4027 H         1 <0>         0.0000
     28 H10        -3.5696   -2.8836    1.1579 H         1 <0>         0.0000
     29 H11         0.2431    2.5310   -0.8225 H         1 <0>         0.0000
     30 H12        -1.0229    1.2850   -0.6705 H         1 <0>         0.0000
     31 H13        -1.1411   -3.0052    0.5880 H         1 <0>         0.0000
     32 H14        -1.3896   -1.9787    2.0243 H         1 <0>         0.0000
@<TRIPOS>BOND
     1    1    3 ar
     2    1    5 ar
     3    2    4 ar
     4    2    5 ar
     5    3    6 ar
     6    4    6 ar
     7    5   11 1
     8    6   15 1
     9    7    9 1
    10    8   10 1
    11    9   16 1
    12   10   17 1
    13   11   12 1
    14   11   13 2
    15   14   18 2
    16   15   18 1
    17   16   18 1
    18   17   18 1
    19    1   19 1
    20    2   20 1
    21    3   21 1
    22    4   22 1
    23    7   23 1
    24    7   24 1
    25    7   25 1
    26    8   26 1
    27    8   27 1
    28    8   28 1
    29    9   29 1
    30    9   30 1
    31   10   31 1
    32   10   32 1
@<TRIPOS>MOLECULE
*****
   32    32     0     0     0
SMALL
NO_CHARGES

@<TRIPOS>ATOM
      1 C1         -1.6335    1.3847    3.9613 C.ar      1 <0>         0.0000
      2 C2          0.1644    2.8905    3.3808 C.ar      1 <0>         0.0000
      3 C3         -0.9926    0.3543    3.2735 C.ar      1 <0>         0.0000
      4 C4          0.8054    1.8601    2.6930 C.ar      1 <0>         0.0000
      5 C5         -1.0550    2.6529    4.0149 C.ar      1 <0>         0.0000
      6 C6          0.2268    0.5920    2.6394 C.ar      1 <0>         0.0000
      7 C7         -0.1849    0.0697   -2.4016 C.3       1 <0>         0.0000
      8 C8         -3.0270   -2.1796    0.3797 C.3       1 <0>         0.0000
      9 C9          1.0649    0.6361   -1.7621 C.3       1 <0>         0.0000
     10 C10        -1.5270   -2.2533    0.5694 C.3       1 <0>         0.0000
     11 N1         -1.7073    3.7021    4.7149 N.pl3     1 <0>         0.0000
     12 O1         -2.8036    3.4676    5.2785 O.3       1 <0>         0.0000
     13 O2         -1.1697    4.8355    4.7504 O.2       1 <0>         0.0000
     14 O3          1.4463   -1.9247   -0.1105 O.2       1 <0>         0.0000
     15 O4          0.8556   -0.4191    1.9646 O.3       1 <0>         0.0000
     16 O5          0.8996    0.6457   -0.3547 O.3       1 <0>         0.0000
     17 O6         -0.9623   -0.9855    0.2818 O.3       1 <0>         0.0000
     18 P1          0.6399   -0.7644    0.4012 P.3       1 <0>         0.0000
     19 H1         -2.5834    1.1860    4.4516 H         1 <0>         0.0000
     20 H2          0.6263    3.8743    3.4141 H         1 <0>         0.0000
     21 H3         -1.4480   -0.6315    3.2355 H         1 <0>         0.0000
     22 H4          1.7549    2.0515    2.2006 H         1 <0>         0.0000
     23 H5         -0.3658   -0.9547   -2.0645 H         1 <0>         0.0000
     24 H6         -1.0574    0.6829   -2.1532 H         1 <0>         0.0000
     25 H7         -0.0948    0.0718   -3.4929 H         1 <0>         0.0000
     26 H8         -3.4695   -1.4398    1.0526 H         1 <0>         0.0000
     27 H9         -3.2728   -1.9101   -0.6527 H         1 <0>         0.0000
     28 H10        -3.4887   -3.1536    0.5729 H         1 <0>         0.0000
     29 H11         1.2400    1.6607   -2.1034 H         1 <0>         0.0000
     30 H12         1.9355    0.0218   -2.0106 H         1 <0>         0.0000
     31 H13        -1.0907   -2.9950   -0.1065 H         1 <0>         0.0000
     32 H14        -1.2832   -2.5218    1.6016 H         1 <0>         0.0000
@<TRIPOS>BOND
     1    1    3 ar
     2    1    5 ar
     3    2    4 ar
     4    2    5 ar
     5    3    6 ar
     6    4    6 ar
     7    5   11 1
     8    6   15 1
     9    7    9 1
    10    8   10 1
    11    9   16 1
    12   10   17 1
    13   11   12 1
    14   11   13 2
    15   14   18 2
    16   15   18 1
    17   16   18 1
    18   17   18 1
    19    1   19 1
    20    2   20 1
    21    3   21 1
    22    4   22 1
    23    7   23 1
    24    7   24 1
    25    7   25 1
    26    8   26 1
    27    8   27 1
    28    8   28 1
    29    9   29 1
    30    9   30 1
    31   10   31 1
    32   10   32 1
@<TRIPOS>MOLECULE
*****
   32    32     0     0     0
SMALL
NO_CHARGES

@<TRIPOS>ATOM
      1 C1          4.4618   -0.2009    2.5849 C.ar      1 <0>         0.0000
      2 C2          3.3343   -0.7846    4.6404 C.ar      1 <0>         0.0000
      3 C3          3.2356   -0.1713    1.9207 C.ar      1 <0>         0.0000
      4 C4          2.1081   -0.7549    3.9762 C.ar      1 <0>         0.0000
      5 C5          4.5112   -0.5076    3.9447 C.ar      1 <0>         0.0000
      6 C6          2.0588   -0.4483    2.6163 C.ar      1 <0>         0.0000
      7 C7          0.8669    3.0215   -0.5828 C.3       1 <0>         0.0000
      8 C8         -0.9608   -2.4462   -1.6064 C.3       1 <0>         0.0000
      9 C9          0.5335    1.8437    0.3079 C.3       1 <0>         0.0000
     10 C10        -1.5563   -1.1996   -0.9873 C.3       1 <0>         0.0000
     11 N1          5.7593   -0.5380    4.6211 N.pl3     1 <0>         0.0000
     12 O1          6.8063   -0.2859    3.9771 O.3       1 <0>         0.0000
     13 O2          5.7813   -0.8165    5.8445 O.2       1 <0>         0.0000
     14 O3          1.4463   -1.9247   -0.1105 O.2       1 <0>         0.0000
     15 O4          0.8556   -0.4191    1.9646 O.3       1 <0>         0.0000
     16 O5          0.8996    0.6457   -0.3547 O.3       1 <0>         0.0000
     17 O6         -0.9623   -0.9855    0.2818 O.3       1 <0>         0.0000
     18 P1          0.6399   -0.7644    0.4012 P.3       1 <0>         0.0000
     19 H1          5.3716    0.0174    2.0309 H         1 <0>         0.0000
     20 H2          3.3584   -1.0256    5.7003 H         1 <0>         0.0000
     21 H3          3.2035    0.0686    0.8614 H         1 <0>         0.0000
     22 H4          1.1948   -0.9720    4.5234 H         1 <0>         0.0000
     23 H5          1.9382    3.0559   -0.7994 H         1 <0>         0.0000
     24 H6          0.3170    2.9589   -1.5276 H         1 <0>         0.0000
     25 H7          0.5727    3.9619   -0.1050 H         1 <0>         0.0000
     26 H8          0.1190   -2.3376   -1.7404 H         1 <0>         0.0000
     27 H9         -1.1527   -3.3201   -0.9752 H         1 <0>         0.0000
     28 H10        -1.4189   -2.6500   -2.5799 H         1 <0>         0.0000
     29 H11        -0.5393    1.8151    0.5207 H         1 <0>         0.0000
     30 H12         1.0843    1.9074    1.2510 H         1 <0>         0.0000
     31 H13        -2.6363   -1.3147   -0.8560 H         1 <0>         0.0000
     32 H14        -1.3629   -0.3273   -1.6187 H         1 <0>         0.0000
@<TRIPOS>BOND
     1    1    3 ar
     2    1    5 ar
     3    2    4 ar
     4    2    5 ar
     5    3    6 ar
     6    4    6 ar
     7    5   11 1
     8    6   15 1
     9    7    9 1
    10    8   10 1
    11    9   16 1
    12   10   17 1
    13   11   12 1
    14   11   13 2
    15   14   18 2
    16   15   18 1
    17   16   18 1
    18   17   18 1
    19    1   19 1
    20    2   20 1
    21    3   21 1
    22    4   22 1
    23    7   23 1
    24    7   24 1
    25    7   25 1
    26    8   26 1
    27    8   27 1
    28    8   28 1
    29    9   29 1
    30    9   30 1
    31   10   31 1
    32   10   32 1
@<TRIPOS>MOLECULE
*****
   32    32     0     0     0
SMALL
NO_CHARGES

@<TRIPOS>ATOM
      1 C1         -1.3203    2.4475    2.6608 C.ar      1 <0>         0.0000
      2 C2         -0.1490    1.8279    4.6810 C.ar      1 <0>         0.0000
      3 C3         -0.6793    1.4170    1.9731 C.ar      1 <0>         0.0000
      4 C4          0.4920    0.7974    3.9933 C.ar      1 <0>         0.0000
      5 C5         -1.0551    2.6529    4.0148 C.ar      1 <0>         0.0000
      6 C6          0.2268    0.5920    2.6394 C.ar      1 <0>         0.0000
      7 C7          0.9532    2.1233   -2.2286 C.3       1 <0>         0.0000
      8 C8         -1.2055   -2.6228    2.0018 C.3       1 <0>         0.0000
      9 C9          0.6411    0.7228   -1.7459 C.3       1 <0>         0.0000
     10 C10        -1.5270   -2.2533    0.5694 C.3       1 <0>         0.0000
     11 N1         -1.7073    3.7020    4.7151 N.pl3     1 <0>         0.0000
     12 O1         -2.5188    4.4330    4.0973 O.3       1 <0>         0.0000
     13 O2         -1.4540    3.8697    5.9326 O.2       1 <0>         0.0000
     14 O3          1.4463   -1.9247   -0.1105 O.2       1 <0>         0.0000
     15 O4          0.8556   -0.4191    1.9646 O.3       1 <0>         0.0000
     16 O5          0.8996    0.6457   -0.3547 O.3       1 <0>         0.0000
     17 O6         -0.9623   -0.9855    0.2818 O.3       1 <0>         0.0000
     18 P1          0.6399   -0.7644    0.4012 P.3       1 <0>         0.0000
     19 H1         -2.0246    3.0831    2.1297 H         1 <0>         0.0000
     20 H2          0.0674    1.9771    5.7360 H         1 <0>         0.0000
     21 H3         -0.8902    1.2617    0.9185 H         1 <0>         0.0000
     22 H4          1.1971    0.1582    4.5177 H         1 <0>         0.0000
     23 H5          0.3289    2.8607   -1.7163 H         1 <0>         0.0000
     24 H6          2.0058    2.3671   -2.0514 H         1 <0>         0.0000
     25 H7          0.7845    2.2061   -3.3074 H         1 <0>         0.0000
     26 H8         -0.1245   -2.6789    2.1571 H         1 <0>         0.0000
     27 H9         -1.6244   -1.8850    2.6940 H         1 <0>         0.0000
     28 H10        -1.6501   -3.5897    2.2599 H         1 <0>         0.0000
     29 H11         1.2688   -0.0097   -2.2621 H         1 <0>         0.0000
     30 H12        -0.4111    0.4812   -1.9229 H         1 <0>         0.0000
     31 H13        -2.6095   -2.1989    0.4208 H         1 <0>         0.0000
     32 H14        -1.1071   -2.9910   -0.1209 H         1 <0>         0.0000
@<TRIPOS>BOND
     1    1    3 ar
     2    1    5 ar
     3    2    4 ar
     4    2    5 ar
     5    3    6 ar
     6    4    6 ar
     7    5   11 1
     8    6   15 1
     9    7    9 1
    10    8   10 1
    11    9   16 1
    12   10   17 1
    13   11   12 1
    14   11   13 2
    15   14   18 2
    16   15   18 1
    17   16   18 1
    18   17   18 1
    19    1   19 1
    20    2   20 1
    21    3   21 1
    22    4   22 1
    23    7   23 1
    24    7   24 1
    25    7   25 1
    26    8   26 1
    27    8   27 1
    28    8   28 1
    29    9   29 1
    30    9   30 1
    31   10   31 1
    32   10   32 1
@<TRIPOS>MOLECULE
*****
   32    32     0     0     0
SMALL
NO_CHARGES

@<TRIPOS>ATOM
      1 C1          4.3277    0.3460    2.8569 C.ar      1 <0>         0.0000
      2 C2          3.4684   -1.3314    4.3685 C.ar      1 <0>         0.0000
      3 C3          3.1015    0.3756    2.1927 C.ar      1 <0>         0.0000
      4 C4          2.2422   -1.3018    3.7042 C.ar      1 <0>         0.0000
      5 C5          4.5111   -0.5076    3.9448 C.ar      1 <0>         0.0000
      6 C6          2.0588   -0.4483    2.6163 C.ar      1 <0>         0.0000
      7 C7          1.2927    2.0538   -2.2415 C.3       1 <0>         0.0000
      8 C8         -1.6472    1.2515    0.7566 C.3       1 <0>         0.0000
      9 C9          1.0649    0.6361   -1.7621 C.3       1 <0>         0.0000
     10 C10        -1.8462   -0.2145    1.0776 C.3       1 <0>         0.0000
     11 N1          5.7593   -0.5381    4.6211 N.pl3     1 <0>         0.0000
     12 O1          6.6846    0.2109    4.2241 O.3       1 <0>         0.0000
     13 O2          5.9033   -1.3135    5.5971 O.2       1 <0>         0.0000
     14 O3          1.4463   -1.9247   -0.1105 O.2       1 <0>         0.0000
     15 O4          0.8556   -0.4191    1.9646 O.3       1 <0>         0.0000
     16 O5          0.8996    0.6457   -0.3547 O.3       1 <0>         0.0000
     17 O6         -0.9623   -0.9855    0.2818 O.3       1 <0>         0.0000
     18 P1          0.6399   -0.7644    0.4012 P.3       1 <0>         0.0000
     19 H1          5.1321    0.9936    2.5167 H         1 <0>         0.0000
     20 H2          3.5978   -2.0019    5.2146 H         1 <0>         0.0000
     21 H3          2.9645    1.0428    1.3460 H         1 <0>         0.0000
     22 H4          1.4338   -1.9463    4.0387 H         1 <0>         0.0000
     23 H5          0.4390    2.6911   -1.9948 H         1 <0>         0.0000
     24 H6          2.1932    2.4762   -1.7836 H         1 <0>         0.0000
     25 H7          1.4473    2.0744   -3.3254 H         1 <0>         0.0000
     26 H8         -0.6215    1.5626    0.9730 H         1 <0>         0.0000
     27 H9         -1.8610    1.4479   -0.2991 H         1 <0>         0.0000
     28 H10        -2.3351    1.8712    1.3413 H         1 <0>         0.0000
     29 H11         1.9223    0.0041   -2.0120 H         1 <0>         0.0000
     30 H12         0.1644    0.2159   -2.2200 H         1 <0>         0.0000
     31 H13        -2.8740   -0.5192    0.8590 H         1 <0>         0.0000
     32 H14        -1.6314   -0.4092    2.1326 H         1 <0>         0.0000
@<TRIPOS>BOND
     1    1    3 ar
     2    1    5 ar
     3    2    4 ar
     4    2    5 ar
     5    3    6 ar
     6    4    6 ar
     7    5   11 1
     8    6   15 1
     9    7    9 1
    10    8   10 1
    11    9   16 1
    12   10   17 1
    13   11   12 1
    14   11   13 2
    15   14   18 2
    16   15   18 1
    17   16   18 1
    18   17   18 1
    19    1   19 1
    20    2   20 1
    21    3   21 1
    22    4   22 1
    23    7   23 1
    24    7   24 1
    25    7   25 1
    26    8   26 1
    27    8   27 1
    28    8   28 1
    29    9   29 1
    30    9   30 1
    31   10   31 1
    32   10   32 1
@<TRIPOS>MOLECULE
*****
   32    32     0     0     0
SMALL
NO_CHARGES

@<TRIPOS>ATOM
      1 C1          0.4838   -3.5292    3.8688 C.ar      1 <0>         0.0000
      2 C2         -0.0408   -1.6531    5.2979 C.ar      1 <0>         0.0000
      3 C3          0.7393   -2.6538    2.8134 C.ar      1 <0>         0.0000
      4 C4          0.2148   -0.7777    4.2425 C.ar      1 <0>         0.0000
      5 C5          0.0937   -3.0289    5.1111 C.ar      1 <0>         0.0000
      6 C6          0.6048   -1.2781    3.0002 C.ar      1 <0>         0.0000
      7 C7          2.2086    2.4977   -1.0990 C.3       1 <0>         0.0000
      8 C8         -1.6581    0.8605    1.6259 C.3       1 <0>         0.0000
      9 C9          2.2078    1.1900   -0.3364 C.3       1 <0>         0.0000
     10 C10        -1.8366    0.1297    0.3122 C.3       1 <0>         0.0000
     11 N1         -0.1667   -3.9198    6.1857 N.pl3     1 <0>         0.0000
     12 O1         -0.0400   -5.1538    5.9969 O.3       1 <0>         0.0000
     13 O2         -0.5168   -3.4487    7.2948 O.2       1 <0>         0.0000
     14 O3          1.4463   -1.9247   -0.1105 O.2       1 <0>         0.0000
     15 O4          0.8556   -0.4191    1.9646 O.3       1 <0>         0.0000
     16 O5          0.8996    0.6457   -0.3547 O.3       1 <0>         0.0000
     17 O6         -0.9623   -0.9855    0.2818 O.3       1 <0>         0.0000
     18 P1          0.6399   -0.7644    0.4012 P.3       1 <0>         0.0000
     19 H1          0.5927   -4.5992    3.7099 H         1 <0>         0.0000
     20 H2         -0.3446   -1.2496    6.2607 H         1 <0>         0.0000
     21 H3          1.0431   -3.0495    1.8481 H         1 <0>         0.0000
     22 H4          0.1079    0.2930    4.3940 H         1 <0>         0.0000
     23 H5          1.9097    2.3428   -2.1395 H         1 <0>         0.0000
     24 H6          1.5219    3.2145   -0.6369 H         1 <0>         0.0000
     25 H7          3.2040    2.9539   -1.0817 H         1 <0>         0.0000
     26 H8         -1.8954    0.2080    2.4707 H         1 <0>         0.0000
     27 H9         -0.6283    1.2168    1.7326 H         1 <0>         0.0000
     28 H10        -2.3059    1.7425    1.6679 H         1 <0>         0.0000
     29 H11         2.5076    1.3519    0.7033 H         1 <0>         0.0000
     30 H12         2.8938    0.4747   -0.7999 H         1 <0>         0.0000
     31 H13        -1.5978    0.7878   -0.5286 H         1 <0>         0.0000
     32 H14        -2.8658   -0.2263    0.2075 H         1 <0>         0.0000
@<TRIPOS>BOND
     1    1    3 ar
     2    1    5 ar
     3    2    4 ar
     4    2    5 ar
     5    3    6 ar
     6    4    6 ar
     7    5   11 1
     8    6   15 1
     9    7    9 1
    10    8   10 1
    11    9   16 1
    12   10   17 1
    13   11   12 1
    14   11   13 2
    15   14   18 2
    16   15   18 1
    17   16   18 1
    18   17   18 1
    19    1   19 1
    20    2   20 1
    21    3   21 1
    22    4   22 1
    23    7   23 1
    24    7   24 1
    25    7   25 1
    26    8   26 1
    27    8   27 1
    28    8   28 1
    29    9   29 1
    30    9   30 1
    31   10   31 1
    32   10   32 1
@<TRIPOS>MOLECULE
*****
   32    32     0     0     0
SMALL
NO_CHARGES

@<TRIPOS>ATOM
      1 C1         -1.3203    2.4475    2.6608 C.ar      1 <0>         0.0000
      2 C2         -0.1490    1.8279    4.6810 C.ar      1 <0>         0.0000
      3 C3         -0.6793    1.4170    1.9731 C.ar      1 <0>         0.0000
      4 C4          0.4920    0.7974    3.9933 C.ar      1 <0>         0.0000
      5 C5         -1.0551    2.6529    4.0148 C.ar      1 <0>         0.0000
      6 C6          0.2268    0.5920    2.6394 C.ar      1 <0>         0.0000
      7 C7          3.0787    1.0430    0.5347 C.3       1 <0>         0.0000
      8 C8         -3.0494   -1.3745   -0.8096 C.3       1 <0>         0.0000
      9 C9          2.2277    0.9829   -0.7159 C.3       1 <0>         0.0000
     10 C10        -1.5563   -1.1996   -0.9873 C.3       1 <0>         0.0000
     11 N1         -1.7073    3.7020    4.7151 N.pl3     1 <0>         0.0000
     12 O1         -2.5188    4.4330    4.0973 O.3       1 <0>         0.0000
     13 O2         -1.4540    3.8697    5.9326 O.2       1 <0>         0.0000
     14 O3          1.4463   -1.9247   -0.1105 O.2       1 <0>         0.0000
     15 O4          0.8556   -0.4191    1.9646 O.3       1 <0>         0.0000
     16 O5          0.8996    0.6457   -0.3547 O.3       1 <0>         0.0000
     17 O6         -0.9623   -0.9855    0.2818 O.3       1 <0>         0.0000
     18 P1          0.6399   -0.7644    0.4012 P.3       1 <0>         0.0000
     19 H1         -2.0246    3.0831    2.1297 H         1 <0>         0.0000
     20 H2          0.0674    1.9771    5.7360 H         1 <0>         0.0000
     21 H3         -0.8902    1.2617    0.9185 H         1 <0>         0.0000
     22 H4          1.1971    0.1582    4.5177 H         1 <0>         0.0000
     23 H5          2.7021    1.8013    1.2268 H         1 <0>         0.0000
     24 H6          3.0869    0.0732    1.0430 H         1 <0>         0.0000
     25 H7          4.1180    1.2792    0.2832 H         1 <0>         0.0000
     26 H8         -3.2684   -2.2356   -0.1721 H         1 <0>         0.0000
     27 H9         -3.4920   -0.4798   -0.3596 H         1 <0>         0.0000
     28 H10        -3.5390   -1.5187   -1.7785 H         1 <0>         0.0000
     29 H11         2.6097    0.2226   -1.4038 H         1 <0>         0.0000
     30 H12         2.2200    1.9528   -1.2221 H         1 <0>         0.0000
     31 H13        -1.3442   -0.3369   -1.6258 H         1 <0>         0.0000
     32 H14        -1.1155   -2.0947   -1.4362 H         1 <0>         0.0000
@<TRIPOS>BOND
     1    1    3 ar
     2    1    5 ar
     3    2    4 ar
     4    2    5 ar
     5    3    6 ar
     6    4    6 ar
     7    5   11 1
     8    6   15 1
     9    7    9 1
    10    8   10 1
    11    9   16 1
    12   10   17 1
    13   11   12 1
    14   11   13 2
    15   14   18 2
    16   15   18 1
    17   16   18 1
    18   17   18 1
    19    1   19 1
    20    2   20 1
    21    3   21 1
    22    4   22 1
    23    7   23 1
    24    7   24 1
    25    7   25 1
    26    8   26 1
    27    8   27 1
    28    8   28 1
    29    9   29 1
    30    9   30 1
    31   10   31 1
    32   10   32 1
@<TRIPOS>MOLECULE
*****
   32    32     0     0     0
SMALL
NO_CHARGES

@<TRIPOS>ATOM
      1 C1          4.4618   -0.2009    2.5849 C.ar      1 <0>         0.0000
      2 C2          3.3343   -0.7846    4.6404 C.ar      1 <0>         0.0000
      3 C3          3.2356   -0.1713    1.9207 C.ar      1 <0>         0.0000
      4 C4          2.1081   -0.7549    3.9762 C.ar      1 <0>         0.0000
      5 C5          4.5112   -0.5076    3.9447 C.ar      1 <0>         0.0000
      6 C6          2.0588   -0.4483    2.6163 C.ar      1 <0>         0.0000
      7 C7         -0.9533    1.8158    0.5915 C.3       1 <0>         0.0000
      8 C8         -3.0494   -1.3745   -0.8096 C.3       1 <0>         0.0000
      9 C9          0.5335    1.8437    0.3079 C.3       1 <0>         0.0000
     10 C10        -1.5563   -1.1996   -0.9873 C.3       1 <0>         0.0000
     11 N1          5.7593   -0.5380    4.6211 N.pl3     1 <0>         0.0000
     12 O1          6.8063   -0.2859    3.9771 O.3       1 <0>         0.0000
     13 O2          5.7813   -0.8165    5.8445 O.2       1 <0>         0.0000
     14 O3          1.4463   -1.9247   -0.1105 O.2       1 <0>         0.0000
     15 O4          0.8556   -0.4191    1.9646 O.3       1 <0>         0.0000
     16 O5          0.8996    0.6457   -0.3547 O.3       1 <0>         0.0000
     17 O6         -0.9623   -0.9855    0.2818 O.3       1 <0>         0.0000
     18 P1          0.6399   -0.7644    0.4012 P.3       1 <0>         0.0000
     19 H1          5.3716    0.0174    2.0309 H         1 <0>         0.0000
     20 H2          3.3584   -1.0256    5.7003 H         1 <0>         0.0000
     21 H3          3.2035    0.0686    0.8614 H         1 <0>         0.0000
     22 H4          1.1948   -0.9720    4.5234 H         1 <0>         0.0000
     23 H5         -1.5263    1.7415   -0.3370 H         1 <0>         0.0000
     24 H6         -1.2080    0.9659    1.2331 H         1 <0>         0.0000
     25 H7         -1.2613    2.7211    1.1251 H         1 <0>         0.0000
     26 H8         -3.2684   -2.2356   -0.1721 H         1 <0>         0.0000
     27 H9         -3.4920   -0.4798   -0.3596 H         1 <0>         0.0000
     28 H10        -3.5390   -1.5187   -1.7785 H         1 <0>         0.0000
     29 H11         1.1007    1.9181    1.2405 H         1 <0>         0.0000
     30 H12         0.7861    2.6929   -0.3340 H         1 <0>         0.0000
     31 H13        -1.3442   -0.3369   -1.6258 H         1 <0>         0.0000
     32 H14        -1.1155   -2.0947   -1.4362 H         1 <0>         0.0000
@<TRIPOS>BOND
     1    1    3 ar
     2    1    5 ar
     3    2    4 ar
     4    2    5 ar
     5    3    6 ar
     6    4    6 ar
     7    5   11 1
     8    6   15 1
     9    7    9 1
    10    8   10 1
    11    9   16 1
    12   10   17 1
    13   11   12 1
    14   11   13 2
    15   14   18 2
    16   15   18 1
    17   16   18 1
    18   17   18 1
    19    1   19 1
    20    2   20 1
    21    3   21 1
    22    4   22 1
    23    7   23 1
    24    7   24 1
    25    7   25 1
    26    8   26 1
    27    8   27 1
    28    8   28 1
    29    9   29 1
    30    9   30 1
    31   10   31 1
    32   10   32 1
@<TRIPOS>MOLECULE
*****
   32    32     0     0     0
SMALL
NO_CHARGES

@<TRIPOS>ATOM
      1 C1          4.4448   -0.8260    2.5882 C.ar      1 <0>         0.0000
      2 C2          3.3513   -0.1595    4.6369 C.ar      1 <0>         0.0000
      3 C3          3.2186   -0.7964    1.9241 C.ar      1 <0>         0.0000
      4 C4          2.1251   -0.1299    3.9728 C.ar      1 <0>         0.0000
      5 C5          4.5112   -0.5076    3.9447 C.ar      1 <0>         0.0000
      6 C6          2.0588   -0.4483    2.6163 C.ar      1 <0>         0.0000
      7 C7          2.2245    2.3317   -1.4032 C.3       1 <0>         0.0000
      8 C8         -3.0270   -2.1796    0.3797 C.3       1 <0>         0.0000
      9 C9          2.2277    0.9829   -0.7159 C.3       1 <0>         0.0000
     10 C10        -1.5270   -2.2533    0.5694 C.3       1 <0>         0.0000
     11 N1          5.7593   -0.5379    4.6211 N.pl3     1 <0>         0.0000
     12 O1          6.7909   -0.8537    3.9802 O.3       1 <0>         0.0000
     13 O2          5.7967   -0.2484    5.8416 O.2       1 <0>         0.0000
     14 O3          1.4463   -1.9247   -0.1105 O.2       1 <0>         0.0000
     15 O4          0.8556   -0.4191    1.9646 O.3       1 <0>         0.0000
     16 O5          0.8996    0.6457   -0.3547 O.3       1 <0>         0.0000
     17 O6         -0.9623   -0.9855    0.2818 O.3       1 <0>         0.0000
     18 P1          0.6399   -0.7644    0.4012 P.3       1 <0>         0.0000
     19 H1          5.3413   -1.0986    2.0368 H         1 <0>         0.0000
     20 H2          3.3886    0.0904    5.6944 H         1 <0>         0.0000
     21 H3          3.1733   -1.0450    0.8673 H         1 <0>         0.0000
     22 H4          1.2250    0.1416    4.5175 H         1 <0>         0.0000
     23 H5          1.6123    2.3067   -2.3089 H         1 <0>         0.0000
     24 H6          1.8340    3.1051   -0.7337 H         1 <0>         0.0000
     25 H7          3.2431    2.6294   -1.6734 H         1 <0>         0.0000
     26 H8         -3.4695   -1.4398    1.0526 H         1 <0>         0.0000
     27 H9         -3.2728   -1.9101   -0.6527 H         1 <0>         0.0000
     28 H10        -3.4887   -3.1536    0.5729 H         1 <0>         0.0000
     29 H11         2.8418    1.0147    0.1891 H         1 <0>         0.0000
     30 H12         2.6174    0.2112   -1.3864 H         1 <0>         0.0000
     31 H13        -1.0907   -2.9950   -0.1065 H         1 <0>         0.0000
     32 H14        -1.2832   -2.5218    1.6016 H         1 <0>         0.0000
@<TRIPOS>BOND
     1    1    3 ar
     2    1    5 ar
     3    2    4 ar
     4    2    5 ar
     5    3    6 ar
     6    4    6 ar
     7    5   11 1
     8    6   15 1
     9    7    9 1
    10    8   10 1
    11    9   16 1
    12   10   17 1
    13   11   12 1
    14   11   13 2
    15   14   18 2
    16   15   18 1
    17   16   18 1
    18   17   18 1
    19    1   19 1
    20    2   20 1
    21    3   21 1
    22    4   22 1
    23    7   23 1
    24    7   24 1
    25    7   25 1
    26    8   26 1
    27    8   27 1
    28    8   28 1
    29    9   29 1
    30    9   30 1
    31   10   31 1
    32   10   32 1
@<TRIPOS>MOLECULE
*****
   32    32     0     0     0
SMALL
NO_CHARGES

@<TRIPOS>ATOM
      1 C1          0.4869   -3.5298    3.8684 C.ar      1 <0>         0.0000
      2 C2          1.8850   -1.9985    5.1084 C.ar      1 <0>         0.0000
      3 C3          0.3537   -2.5847    2.8513 C.ar      1 <0>         0.0000
      4 C4          1.7519   -1.0533    4.0912 C.ar      1 <0>         0.0000
      5 C5          1.2525   -3.2367    4.9970 C.ar      1 <0>         0.0000
      6 C6          0.9862   -1.3465    2.9627 C.ar      1 <0>         0.0000
      7 C7          3.2838    0.5769   -0.2642 C.3       1 <0>         0.0000
      8 C8         -1.0322   -1.7228   -1.9876 C.3       1 <0>         0.0000
      9 C9          2.0432    1.4023    0.0030 C.3       1 <0>         0.0000
     10 C10        -1.6165   -0.7787   -0.9585 C.3       1 <0>         0.0000
     11 N1          1.3881   -4.1986    6.0327 N.pl3     1 <0>         0.0000
     12 O1          0.8110   -5.3064    5.9132 O.3       1 <0>         0.0000
     13 O2          2.0811   -3.9144    7.0395 O.2       1 <0>         0.0000
     14 O3          1.4463   -1.9247   -0.1105 O.2       1 <0>         0.0000
     15 O4          0.8556   -0.4191    1.9646 O.3       1 <0>         0.0000
     16 O5          0.8996    0.6457   -0.3547 O.3       1 <0>         0.0000
     17 O6         -0.9623   -0.9855    0.2818 O.3       1 <0>         0.0000
     18 P1          0.6399   -0.7644    0.4012 P.3       1 <0>         0.0000
     19 H1         -0.0110   -4.4912    3.7689 H         1 <0>         0.0000
     20 H2          2.4844   -1.7567    5.9827 H         1 <0>         0.0000
     21 H3         -0.2437   -2.8189    1.9744 H         1 <0>         0.0000
     22 H4          2.2467   -0.0904    4.1839 H         1 <0>         0.0000
     23 H5          3.2752   -0.3431    0.3268 H         1 <0>         0.0000
     24 H6          3.3520    0.3149   -1.3252 H         1 <0>         0.0000
     25 H7          4.1863    1.1463   -0.0183 H         1 <0>         0.0000
     26 H8          0.0374   -1.5396   -2.1224 H         1 <0>         0.0000
     27 H9         -1.1767   -2.7643   -1.6820 H         1 <0>         0.0000
     28 H10        -1.5358   -1.6015   -2.9524 H         1 <0>         0.0000
     29 H11         2.0581    2.3208   -0.5911 H         1 <0>         0.0000
     30 H12         1.9761    1.6624    1.0636 H         1 <0>         0.0000
     31 H13        -2.6863   -0.9673   -0.8285 H         1 <0>         0.0000
     32 H14        -1.4705    0.2614   -1.2650 H         1 <0>         0.0000
@<TRIPOS>BOND
     1    1    3 ar
     2    1    5 ar
     3    2    4 ar
     4    2    5 ar
     5    3    6 ar
     6    4    6 ar
     7    5   11 1
     8    6   15 1
     9    7    9 1
    10    8   10 1
    11    9   16 1
    12   10   17 1
    13   11   12 1
    14   11   13 2
    15   14   18 2
    16   15   18 1
    17   16   18 1
    18   17   18 1
    19    1   19 1
    20    2   20 1
    21    3   21 1
    22    4   22 1
    23    7   23 1
    24    7   24 1
    25    7   25 1
    26    8   26 1
    27    8   27 1
    28    8   28 1
    29    9   29 1
    30    9   30 1
    31   10   31 1
    32   10   32 1
@<TRIPOS>MOLECULE
*****
   32    32     0     0     0
SMALL
NO_CHARGES

@<TRIPOS>ATOM
      1 C1          0.4838   -3.5292    3.8688 C.ar      1 <0>         0.0000
      2 C2         -0.0408   -1.6531    5.2979 C.ar      1 <0>         0.0000
      3 C3          0.7393   -2.6538    2.8134 C.ar      1 <0>         0.0000
      4 C4          0.2148   -0.7777    4.2425 C.ar      1 <0>         0.0000
      5 C5          0.0937   -3.0289    5.1111 C.ar      1 <0>         0.0000
      6 C6          0.6048   -1.2781    3.0002 C.ar      1 <0>         0.0000
      7 C7          0.8669    3.0215   -0.5828 C.3       1 <0>         0.0000
      8 C8         -0.9608   -2.4462   -1.6064 C.3       1 <0>         0.0000
      9 C9          0.5335    1.8437    0.3079 C.3       1 <0>         0.0000
     10 C10        -1.5563   -1.1996   -0.9873 C.3       1 <0>         0.0000
     11 N1         -0.1667   -3.9198    6.1857 N.pl3     1 <0>         0.0000
     12 O1         -0.0400   -5.1538    5.9969 O.3       1 <0>         0.0000
     13 O2         -0.5168   -3.4487    7.2948 O.2       1 <0>         0.0000
     14 O3          1.4463   -1.9247   -0.1105 O.2       1 <0>         0.0000
     15 O4          0.8556   -0.4191    1.9646 O.3       1 <0>         0.0000
     16 O5          0.8996    0.6457   -0.3547 O.3       1 <0>         0.0000
     17 O6         -0.9623   -0.9855    0.2818 O.3       1 <0>         0.0000
     18 P1          0.6399   -0.7644    0.4012 P.3       1 <0>         0.0000
     19 H1          0.5927   -4.5992    3.7099 H         1 <0>         0.0000
     20 H2         -0.3446   -1.2496    6.2607 H         1 <0>         0.0000
     21 H3          1.0431   -3.0495    1.8481 H         1 <0>         0.0000
     22 H4          0.1079    0.2930    4.3940 H         1 <0>         0.0000
     23 H5          1.9382    3.0559   -0.7994 H         1 <0>         0.0000
     24 H6          0.3170    2.9589   -1.5276 H         1 <0>         0.0000
     25 H7          0.5727    3.9619   -0.1050 H         1 <0>         0.0000
     26 H8          0.1190   -2.3376   -1.7404 H         1 <0>         0.0000
     27 H9         -1.1527   -3.3201   -0.9752 H         1 <0>         0.0000
     28 H10        -1.4189   -2.6500   -2.5799 H         1 <0>         0.0000
     29 H11        -0.5393    1.8151    0.5207 H         1 <0>         0.0000
     30 H12         1.0843    1.9074    1.2510 H         1 <0>         0.0000
     31 H13        -2.6363   -1.3147   -0.8560 H         1 <0>         0.0000
     32 H14        -1.3629   -0.3273   -1.6187 H         1 <0>         0.0000
@<TRIPOS>BOND
     1    1    3 ar
     2    1    5 ar
     3    2    4 ar
     4    2    5 ar
     5    3    6 ar
     6    4    6 ar
     7    5   11 1
     8    6   15 1
     9    7    9 1
    10    8   10 1
    11    9   16 1
    12   10   17 1
    13   11   12 1
    14   11   13 2
    15   14   18 2
    16   15   18 1
    17   16   18 1
    18   17   18 1
    19    1   19 1
    20    2   20 1
    21    3   21 1
    22    4   22 1
    23    7   23 1
    24    7   24 1
    25    7   25 1
    26    8   26 1
    27    8   27 1
    28    8   28 1
    29    9   29 1
    30    9   30 1
    31   10   31 1
    32   10   32 1
@<TRIPOS>MOLECULE
*****
   32    32     0     0     0
SMALL
NO_CHARGES

@<TRIPOS>ATOM
      1 C1          0.3001   -2.8692    4.6340 C.ar      1 <0>         0.0000
      2 C2         -1.5693   -1.3408    4.5545 C.ar      1 <0>         0.0000
      3 C3          0.9007   -2.1898    3.5741 C.ar      1 <0>         0.0000
      4 C4         -0.9687   -0.6613    3.4946 C.ar      1 <0>         0.0000
      5 C5         -0.9349   -2.4447    5.1241 C.ar      1 <0>         0.0000
      6 C6          0.2663   -1.0858    3.0045 C.ar      1 <0>         0.0000
      7 C7          1.2927    2.0538   -2.2415 C.3       1 <0>         0.0000
      8 C8         -3.0270   -2.1796    0.3797 C.3       1 <0>         0.0000
      9 C9          1.0649    0.6361   -1.7621 C.3       1 <0>         0.0000
     10 C10        -1.5270   -2.2533    0.5694 C.3       1 <0>         0.0000
     11 N1         -1.5466   -3.1363    6.2029 N.pl3     1 <0>         0.0000
     12 O1         -0.9595   -4.1270    6.7012 O.3       1 <0>         0.0000
     13 O2         -2.6580   -2.7381    6.6283 O.2       1 <0>         0.0000
     14 O3          1.4463   -1.9247   -0.1105 O.2       1 <0>         0.0000
     15 O4          0.8556   -0.4191    1.9646 O.3       1 <0>         0.0000
     16 O5          0.8996    0.6457   -0.3547 O.3       1 <0>         0.0000
     17 O6         -0.9623   -0.9855    0.2818 O.3       1 <0>         0.0000
     18 P1          0.6399   -0.7644    0.4012 P.3       1 <0>         0.0000
     19 H1          0.8055   -3.7279    5.0692 H         1 <0>         0.0000
     20 H2         -2.5323   -0.9995    4.9263 H         1 <0>         0.0000
     21 H3          1.8630   -2.5249    3.1968 H         1 <0>         0.0000
     22 H4         -1.4680    0.1977    3.0547 H         1 <0>         0.0000
     23 H5          0.4390    2.6911   -1.9948 H         1 <0>         0.0000
     24 H6          2.1932    2.4762   -1.7836 H         1 <0>         0.0000
     25 H7          1.4473    2.0744   -3.3254 H         1 <0>         0.0000
     26 H8         -3.4695   -1.4398    1.0526 H         1 <0>         0.0000
     27 H9         -3.2728   -1.9101   -0.6527 H         1 <0>         0.0000
     28 H10        -3.4887   -3.1536    0.5729 H         1 <0>         0.0000
     29 H11         1.9223    0.0041   -2.0120 H         1 <0>         0.0000
     30 H12         0.1644    0.2159   -2.2200 H         1 <0>         0.0000
     31 H13        -1.0907   -2.9950   -0.1065 H         1 <0>         0.0000
     32 H14        -1.2832   -2.5218    1.6016 H         1 <0>         0.0000
@<TRIPOS>BOND
     1    1    3 ar
     2    1    5 ar
     3    2    4 ar
     4    2    5 ar
     5    3    6 ar
     6    4    6 ar
     7    5   11 1
     8    6   15 1
     9    7    9 1
    10    8   10 1
    11    9   16 1
    12   10   17 1
    13   11   12 1
    14   11   13 2
    15   14   18 2
    16   15   18 1
    17   16   18 1
    18   17   18 1
    19    1   19 1
    20    2   20 1
    21    3   21 1
    22    4   22 1
    23    7   23 1
    24    7   24 1
    25    7   25 1
    26    8   26 1
    27    8   27 1
    28    8   28 1
    29    9   29 1
    30    9   30 1
    31   10   31 1
    32   10   32 1
@<TRIPOS>MOLECULE
*****
   32    32     0     0     0
SMALL
NO_CHARGES

@<TRIPOS>ATOM
      1 C1          0.4869   -3.5298    3.8684 C.ar      1 <0>         0.0000
      2 C2          1.8850   -1.9985    5.1084 C.ar      1 <0>         0.0000
      3 C3          0.3537   -2.5847    2.8513 C.ar      1 <0>         0.0000
      4 C4          1.7519   -1.0533    4.0912 C.ar      1 <0>         0.0000
      5 C5          1.2525   -3.2367    4.9970 C.ar      1 <0>         0.0000
      6 C6          0.9862   -1.3465    2.9627 C.ar      1 <0>         0.0000
      7 C7          1.5182   -0.2787   -2.4666 C.3       1 <0>         0.0000
      8 C8         -3.2710   -0.6218    0.7680 C.3       1 <0>         0.0000
      9 C9          0.6411    0.7228   -1.7459 C.3       1 <0>         0.0000
     10 C10        -1.8462   -0.2145    1.0776 C.3       1 <0>         0.0000
     11 N1          1.3881   -4.1986    6.0327 N.pl3     1 <0>         0.0000
     12 O1          0.8110   -5.3064    5.9132 O.3       1 <0>         0.0000
     13 O2          2.0811   -3.9144    7.0395 O.2       1 <0>         0.0000
     14 O3          1.4463   -1.9247   -0.1105 O.2       1 <0>         0.0000
     15 O4          0.8556   -0.4191    1.9646 O.3       1 <0>         0.0000
     16 O5          0.8996    0.6457   -0.3547 O.3       1 <0>         0.0000
     17 O6         -0.9623   -0.9855    0.2818 O.3       1 <0>         0.0000
     18 P1          0.6399   -0.7644    0.4012 P.3       1 <0>         0.0000
     19 H1         -0.0110   -4.4912    3.7689 H         1 <0>         0.0000
     20 H2          2.4844   -1.7567    5.9827 H         1 <0>         0.0000
     21 H3         -0.2437   -2.8189    1.9744 H         1 <0>         0.0000
     22 H4          2.2467   -0.0904    4.1839 H         1 <0>         0.0000
     23 H5          2.5769   -0.0642   -2.2959 H         1 <0>         0.0000
     24 H6          1.3039   -1.2964   -2.1240 H         1 <0>         0.0000
     25 H7          1.3228   -0.2578   -3.5439 H         1 <0>         0.0000
     26 H8         -3.5068   -0.4464   -0.2853 H         1 <0>         0.0000
     27 H9         -3.4271   -1.6818    0.9935 H         1 <0>         0.0000
     28 H10        -3.9766   -0.0575    1.3868 H         1 <0>         0.0000
     29 H11        -0.4162    0.5026   -1.9207 H         1 <0>         0.0000
     30 H12         0.8571    1.7391   -2.0888 H         1 <0>         0.0000
     31 H13        -1.6168   -0.3925    2.1325 H         1 <0>         0.0000
     32 H14        -1.6917    0.8446    0.8510 H         1 <0>         0.0000
@<TRIPOS>BOND
     1    1    3 ar
     2    1    5 ar
     3    2    4 ar
     4    2    5 ar
     5    3    6 ar
     6    4    6 ar
     7    5   11 1
     8    6   15 1
     9    7    9 1
    10    8   10 1
    11    9   16 1
    12   10   17 1
    13   11   12 1
    14   11   13 2
    15   14   18 2
    16   15   18 1
    17   16   18 1
    18   17   18 1
    19    1   19 1
    20    2   20 1
    21    3   21 1
    22    4   22 1
    23    7   23 1
    24    7   24 1
    25    7   25 1
    26    8   26 1
    27    8   27 1
    28    8   28 1
    29    9   29 1
    30    9   30 1
    31   10   31 1
    32   10   32 1
@<TRIPOS>MOLECULE
*****
   32    32     0     0     0
SMALL
NO_CHARGES

@<TRIPOS>ATOM
      1 C1          1.0277   -3.3697    4.1328 C.ar      1 <0>         0.0000
      2 C2         -0.5847   -1.8125    5.0340 C.ar      1 <0>         0.0000
      3 C3          1.2833   -2.4944    3.0774 C.ar      1 <0>         0.0000
      4 C4         -0.3292   -0.9371    3.9785 C.ar      1 <0>         0.0000
      5 C5          0.0937   -3.0288    5.1112 C.ar      1 <0>         0.0000
      6 C6          0.6048   -1.2781    3.0002 C.ar      1 <0>         0.0000
      7 C7          3.0787    1.0430    0.5347 C.3       1 <0>         0.0000
      8 C8         -1.1543   -0.7830   -2.0890 C.3       1 <0>         0.0000
      9 C9          2.2277    0.9829   -0.7159 C.3       1 <0>         0.0000
     10 C10        -1.5090   -1.6064   -0.8692 C.3       1 <0>         0.0000
     11 N1         -0.1668   -3.9198    6.1856 N.pl3     1 <0>         0.0000
     12 O1          0.4541   -5.0090    6.2366 O.3       1 <0>         0.0000
     13 O2         -1.0112   -3.5938    7.0548 O.2       1 <0>         0.0000
     14 O3          1.4463   -1.9247   -0.1105 O.2       1 <0>         0.0000
     15 O4          0.8556   -0.4191    1.9646 O.3       1 <0>         0.0000
     16 O5          0.8996    0.6457   -0.3547 O.3       1 <0>         0.0000
     17 O6         -0.9623   -0.9855    0.2818 O.3       1 <0>         0.0000
     18 P1          0.6399   -0.7644    0.4012 P.3       1 <0>         0.0000
     19 H1          1.5637   -4.3144    4.1813 H         1 <0>         0.0000
     20 H2         -1.3156   -1.5344    5.7894 H         1 <0>         0.0000
     21 H3          2.0122   -2.7653    2.3185 H         1 <0>         0.0000
     22 H4         -0.8612    0.0088    3.9236 H         1 <0>         0.0000
     23 H5          2.7021    1.8013    1.2268 H         1 <0>         0.0000
     24 H6          3.0869    0.0732    1.0430 H         1 <0>         0.0000
     25 H7          4.1180    1.2792    0.2832 H         1 <0>         0.0000
     26 H8         -1.5640    0.2279   -2.0101 H         1 <0>         0.0000
     27 H9         -0.0678   -0.7160   -2.2070 H         1 <0>         0.0000
     28 H10        -1.5447   -1.2523   -2.9981 H         1 <0>         0.0000
     29 H11         2.6097    0.2226   -1.4038 H         1 <0>         0.0000
     30 H12         2.2200    1.9528   -1.2221 H         1 <0>         0.0000
     31 H13        -1.0963   -2.6161   -0.9545 H         1 <0>         0.0000
     32 H14        -2.5948   -1.6716   -0.7524 H         1 <0>         0.0000
@<TRIPOS>BOND
     1    1    3 ar
     2    1    5 ar
     3    2    4 ar
     4    2    5 ar
     5    3    6 ar
     6    4    6 ar
     7    5   11 1
     8    6   15 1
     9    7    9 1
    10    8   10 1
    11    9   16 1
    12   10   17 1
    13   11   12 1
    14   11   13 2
    15   14   18 2
    16   15   18 1
    17   16   18 1
    18   17   18 1
    19    1   19 1
    20    2   20 1
    21    3   21 1
    22    4   22 1
    23    7   23 1
    24    7   24 1
    25    7   25 1
    26    8   26 1
    27    8   27 1
    28    8   28 1
    29    9   29 1
    30    9   30 1
    31   10   31 1
    32   10   32 1
@<TRIPOS>MOLECULE
*****
   32    32     0     0     0
SMALL
NO_CHARGES

@<TRIPOS>ATOM
      1 C1         -0.6533   -3.1170    3.9347 C.ar      1 <0>         0.0000
      2 C2         -0.6159   -1.0931    5.2536 C.ar      1 <0>         0.0000
      3 C3         -0.0527   -2.4375    2.8749 C.ar      1 <0>         0.0000
      4 C4         -0.0153   -0.4136    4.1938 C.ar      1 <0>         0.0000
      5 C5         -0.9349   -2.4448    5.1241 C.ar      1 <0>         0.0000
      6 C6          0.2663   -1.0858    3.0045 C.ar      1 <0>         0.0000
      7 C7          3.1586    0.2105   -0.9907 C.3       1 <0>         0.0000
      8 C8         -3.2760   -0.4393    0.4984 C.3       1 <0>         0.0000
      9 C9          2.2078    1.1900   -0.3364 C.3       1 <0>         0.0000
     10 C10        -1.8528    0.0243    0.7248 C.3       1 <0>         0.0000
     11 N1         -1.5465   -3.1363    6.2030 N.pl3     1 <0>         0.0000
     12 O1         -1.8255   -4.3520    6.0661 O.3       1 <0>         0.0000
     13 O2         -1.7916   -2.5126    7.2640 O.2       1 <0>         0.0000
     14 O3          1.4463   -1.9247   -0.1105 O.2       1 <0>         0.0000
     15 O4          0.8556   -0.4191    1.9646 O.3       1 <0>         0.0000
     16 O5          0.8996    0.6457   -0.3547 O.3       1 <0>         0.0000
     17 O6         -0.9623   -0.9855    0.2818 O.3       1 <0>         0.0000
     18 P1          0.6399   -0.7644    0.4012 P.3       1 <0>         0.0000
     19 H1         -0.8964   -4.1706    3.8207 H         1 <0>         0.0000
     20 H2         -0.8303   -0.5569    6.1748 H         1 <0>         0.0000
     21 H3          0.1645   -2.9666    1.9510 H         1 <0>         0.0000
     22 H4          0.2305    0.6394    4.3006 H         1 <0>         0.0000
     23 H5          3.1692   -0.7416   -0.4529 H         1 <0>         0.0000
     24 H6          2.8680    0.0261   -2.0302 H         1 <0>         0.0000
     25 H7          4.1758    0.6156   -1.0118 H         1 <0>         0.0000
     26 H8         -3.4612   -0.6268   -0.5629 H         1 <0>         0.0000
     27 H9         -3.4768   -1.3576    1.0600 H         1 <0>         0.0000
     28 H10        -3.9880    0.3131    0.8537 H         1 <0>         0.0000
     29 H11         2.2020    2.1400   -0.8791 H         1 <0>         0.0000
     30 H12         2.4992    1.3724    0.7023 H         1 <0>         0.0000
     31 H13        -1.6742    0.2100    1.7881 H         1 <0>         0.0000
     32 H14        -1.6537    0.9414    0.1624 H         1 <0>         0.0000
@<TRIPOS>BOND
     1    1    3 ar
     2    1    5 ar
     3    2    4 ar
     4    2    5 ar
     5    3    6 ar
     6    4    6 ar
     7    5   11 1
     8    6   15 1
     9    7    9 1
    10    8   10 1
    11    9   16 1
    12   10   17 1
    13   11   12 1
    14   11   13 2
    15   14   18 2
    16   15   18 1
    17   16   18 1
    18   17   18 1
    19    1   19 1
    20    2   20 1
    21    3   21 1
    22    4   22 1
    23    7   23 1
    24    7   24 1
    25    7   25 1
    26    8   26 1
    27    8   27 1
    28    8   28 1
    29    9   29 1
    30    9   30 1
    31   10   31 1
    32   10   32 1
@<TRIPOS>MOLECULE
*****
   32    32     0     0     0
SMALL
NO_CHARGES

@<TRIPOS>ATOM
      1 C1          4.3497   -0.5877    3.0599 C.ar      1 <0>         0.0000
      2 C2          3.4012    1.5255    3.7466 C.ar      1 <0>         0.0000
      3 C3          3.1326   -0.9456    2.4801 C.ar      1 <0>         0.0000
      4 C4          2.1841    1.1676    3.1668 C.ar      1 <0>         0.0000
      5 C5          4.4840    0.6478    3.6932 C.ar      1 <0>         0.0000
      6 C6          2.0498   -0.0680    2.5336 C.ar      1 <0>         0.0000
      7 C7          0.3711    2.8736   -1.0289 C.3       1 <0>         0.0000
      8 C8         -0.9865   -3.3672    0.4415 C.3       1 <0>         0.0000
      9 C9         -0.0853    1.6592   -0.2488 C.3       1 <0>         0.0000
     10 C10        -1.5805   -2.0713    0.9510 C.3       1 <0>         0.0000
     11 N1          5.7228    1.0124    4.2837 N.pl3     1 <0>         0.0000
     12 O1          6.6845    0.2085    4.2248 O.3       1 <0>         0.0000
     13 O2          5.8220    2.1284    4.8488 O.2       1 <0>         0.0000
     14 O3          1.4463   -1.9247   -0.1105 O.2       1 <0>         0.0000
     15 O4          0.8556   -0.4191    1.9646 O.3       1 <0>         0.0000
     16 O5          0.8996    0.6457   -0.3547 O.3       1 <0>         0.0000
     17 O6         -0.9623   -0.9855    0.2818 O.3       1 <0>         0.0000
     18 P1          0.6399   -0.7644    0.4012 P.3       1 <0>         0.0000
     19 H1          5.1859   -1.2810    3.0109 H         1 <0>         0.0000
     20 H2          3.4919    2.4914    4.2375 H         1 <0>         0.0000
     21 H3          3.0342   -1.9094    1.9879 H         1 <0>         0.0000
     22 H4          1.3441    1.8554    3.2120 H         1 <0>         0.0000
     23 H5          1.3139    3.2605   -0.6323 H         1 <0>         0.0000
     24 H6          0.5081    2.6242   -2.0862 H         1 <0>         0.0000
     25 H7         -0.3828    3.6666   -0.9841 H         1 <0>         0.0000
     26 H8         -1.1553   -3.4779   -0.6332 H         1 <0>         0.0000
     27 H9          0.0907   -3.4006    0.6355 H         1 <0>         0.0000
     28 H10        -1.4297   -4.2245    0.9589 H         1 <0>         0.0000
     29 H11        -1.0286    1.2773   -0.6505 H         1 <0>         0.0000
     30 H12        -0.2209    1.9099    0.8075 H         1 <0>         0.0000
     31 H13        -1.4082   -1.9667    2.0263 H         1 <0>         0.0000
     32 H14        -2.6565   -2.0392    0.7556 H         1 <0>         0.0000
@<TRIPOS>BOND
     1    1    3 ar
     2    1    5 ar
     3    2    4 ar
     4    2    5 ar
     5    3    6 ar
     6    4    6 ar
     7    5   11 1
     8    6   15 1
     9    7    9 1
    10    8   10 1
    11    9   16 1
    12   10   17 1
    13   11   12 1
    14   11   13 2
    15   14   18 2
    16   15   18 1
    17   16   18 1
    18   17   18 1
    19    1   19 1
    20    2   20 1
    21    3   21 1
    22    4   22 1
    23    7   23 1
    24    7   24 1
    25    7   25 1
    26    8   26 1
    27    8   27 1
    28    8   28 1
    29    9   29 1
    30    9   30 1
    31   10   31 1
    32   10   32 1
@<TRIPOS>MOLECULE
*****
   32    32     0     0     0
SMALL
NO_CHARGES

@<TRIPOS>ATOM
      1 C1          4.4618   -0.2009    2.5849 C.ar      1 <0>         0.0000
      2 C2          3.3343   -0.7846    4.6404 C.ar      1 <0>         0.0000
      3 C3          3.2356   -0.1713    1.9207 C.ar      1 <0>         0.0000
      4 C4          2.1081   -0.7549    3.9762 C.ar      1 <0>         0.0000
      5 C5          4.5112   -0.5076    3.9447 C.ar      1 <0>         0.0000
      6 C6          2.0588   -0.4483    2.6163 C.ar      1 <0>         0.0000
      7 C7          0.7078   -0.1913   -2.5818 C.3       1 <0>         0.0000
      8 C8         -1.0725   -3.1717    1.2340 C.3       1 <0>         0.0000
      9 C9          0.2616    0.8710   -1.5999 C.3       1 <0>         0.0000
     10 C10        -1.6441   -1.7700    1.2455 C.3       1 <0>         0.0000
     11 N1          5.7593   -0.5380    4.6211 N.pl3     1 <0>         0.0000
     12 O1          6.8063   -0.2859    3.9771 O.3       1 <0>         0.0000
     13 O2          5.7813   -0.8165    5.8445 O.2       1 <0>         0.0000
     14 O3          1.4463   -1.9247   -0.1105 O.2       1 <0>         0.0000
     15 O4          0.8556   -0.4191    1.9646 O.3       1 <0>         0.0000
     16 O5          0.8996    0.6457   -0.3547 O.3       1 <0>         0.0000
     17 O6         -0.9623   -0.9855    0.2818 O.3       1 <0>         0.0000
     18 P1          0.6399   -0.7644    0.4012 P.3       1 <0>         0.0000
     19 H1          5.3716    0.0174    2.0309 H         1 <0>         0.0000
     20 H2          3.3584   -1.0256    5.7003 H         1 <0>         0.0000
     21 H3          3.2035    0.0686    0.8614 H         1 <0>         0.0000
     22 H4          1.1948   -0.9720    4.5234 H         1 <0>         0.0000
     23 H5          1.7902   -0.1534   -2.7325 H         1 <0>         0.0000
     24 H6          0.4356   -1.1888   -2.2216 H         1 <0>         0.0000
     25 H7          0.2116   -0.0558   -3.5486 H         1 <0>         0.0000
     26 H8         -1.1994   -3.6368    0.2525 H         1 <0>         0.0000
     27 H9         -0.0063   -3.1559    1.4826 H         1 <0>         0.0000
     28 H10        -1.5656   -3.7956    1.9869 H         1 <0>         0.0000
     29 H11        -0.8218    0.8277   -1.4537 H         1 <0>         0.0000
     30 H12         0.5350    1.8669   -1.9610 H         1 <0>         0.0000
     31 H13        -1.5139   -1.3105    2.2299 H         1 <0>         0.0000
     32 H14        -2.7092   -1.7875    0.9962 H         1 <0>         0.0000
@<TRIPOS>BOND
     1    1    3 ar
     2    1    5 ar
     3    2    4 ar
     4    2    5 ar
     5    3    6 ar
     6    4    6 ar
     7    5   11 1
     8    6   15 1
     9    7    9 1
    10    8   10 1
    11    9   16 1
    12   10   17 1
    13   11   12 1
    14   11   13 2
    15   14   18 2
    16   15   18 1
    17   16   18 1
    18   17   18 1
    19    1   19 1
    20    2   20 1
    21    3   21 1
    22    4   22 1
    23    7   23 1
    24    7   24 1
    25    7   25 1
    26    8   26 1
    27    8   27 1
    28    8   28 1
    29    9   29 1
    30    9   30 1
    31   10   31 1
    32   10   32 1
@<TRIPOS>MOLECULE
*****
   32    32     0     0     0
SMALL
NO_CHARGES

@<TRIPOS>ATOM
      1 C1          1.0698   -3.6525    3.6782 C.ar      1 <0>         0.0000
      2 C2          1.3022   -1.8757    5.2987 C.ar      1 <0>         0.0000
      3 C3          0.9366   -2.7074    2.6610 C.ar      1 <0>         0.0000
      4 C4          1.1691   -0.9306    4.2815 C.ar      1 <0>         0.0000
      5 C5          1.2526   -3.2367    4.9970 C.ar      1 <0>         0.0000
      6 C6          0.9862   -1.3465    2.9627 C.ar      1 <0>         0.0000
      7 C7          2.2086    2.4977   -1.0990 C.3       1 <0>         0.0000
      8 C8         -3.0270   -2.1796    0.3797 C.3       1 <0>         0.0000
      9 C9          2.2078    1.1900   -0.3364 C.3       1 <0>         0.0000
     10 C10        -1.5270   -2.2533    0.5694 C.3       1 <0>         0.0000
     11 N1          1.3880   -4.1986    6.0327 N.pl3     1 <0>         0.0000
     12 O1          1.3404   -5.4179    5.7403 O.3       1 <0>         0.0000
     13 O2          1.5512   -3.8030    7.2124 O.2       1 <0>         0.0000
     14 O3          1.4463   -1.9247   -0.1105 O.2       1 <0>         0.0000
     15 O4          0.8556   -0.4191    1.9646 O.3       1 <0>         0.0000
     16 O5          0.8996    0.6457   -0.3547 O.3       1 <0>         0.0000
     17 O6         -0.9623   -0.9855    0.2818 O.3       1 <0>         0.0000
     18 P1          0.6399   -0.7644    0.4012 P.3       1 <0>         0.0000
     19 H1          1.0296   -4.7101    3.4293 H         1 <0>         0.0000
     20 H2          1.4437   -1.5377    6.3224 H         1 <0>         0.0000
     21 H3          0.7948   -3.0374    1.6355 H         1 <0>         0.0000
     22 H4          1.2082    0.1282    4.5228 H         1 <0>         0.0000
     23 H5          1.9097    2.3428   -2.1395 H         1 <0>         0.0000
     24 H6          1.5219    3.2145   -0.6369 H         1 <0>         0.0000
     25 H7          3.2040    2.9539   -1.0817 H         1 <0>         0.0000
     26 H8         -3.4695   -1.4398    1.0526 H         1 <0>         0.0000
     27 H9         -3.2728   -1.9101   -0.6527 H         1 <0>         0.0000
     28 H10        -3.4887   -3.1536    0.5729 H         1 <0>         0.0000
     29 H11         2.5076    1.3519    0.7033 H         1 <0>         0.0000
     30 H12         2.8938    0.4747   -0.7999 H         1 <0>         0.0000
     31 H13        -1.0907   -2.9950   -0.1065 H         1 <0>         0.0000
     32 H14        -1.2832   -2.5218    1.6016 H         1 <0>         0.0000
@<TRIPOS>BOND
     1    1    3 ar
     2    1    5 ar
     3    2    4 ar
     4    2    5 ar
     5    3    6 ar
     6    4    6 ar
     7    5   11 1
     8    6   15 1
     9    7    9 1
    10    8   10 1
    11    9   16 1
    12   10   17 1
    13   11   12 1
    14   11   13 2
    15   14   18 2
    16   15   18 1
    17   16   18 1
    18   17   18 1
    19    1   19 1
    20    2   20 1
    21    3   21 1
    22    4   22 1
    23    7   23 1
    24    7   24 1
    25    7   25 1
    26    8   26 1
    27    8   27 1
    28    8   28 1
    29    9   29 1
    30    9   30 1
    31   10   31 1
    32   10   32 1
@<TRIPOS>MOLECULE
*****
   32    32     0     0     0
SMALL
NO_CHARGES

@<TRIPOS>ATOM
      1 C1          4.3497   -0.5877    3.0599 C.ar      1 <0>         0.0000
      2 C2          3.4012    1.5255    3.7466 C.ar      1 <0>         0.0000
      3 C3          3.1326   -0.9456    2.4801 C.ar      1 <0>         0.0000
      4 C4          2.1841    1.1676    3.1668 C.ar      1 <0>         0.0000
      5 C5          4.4840    0.6478    3.6932 C.ar      1 <0>         0.0000
      6 C6          2.0498   -0.0680    2.5336 C.ar      1 <0>         0.0000
      7 C7         -0.1849    0.0697   -2.4016 C.3       1 <0>         0.0000
      8 C8         -1.2055   -2.6228    2.0018 C.3       1 <0>         0.0000
      9 C9          1.0649    0.6361   -1.7621 C.3       1 <0>         0.0000
     10 C10        -1.5270   -2.2533    0.5694 C.3       1 <0>         0.0000
     11 N1          5.7228    1.0124    4.2837 N.pl3     1 <0>         0.0000
     12 O1          6.6845    0.2085    4.2248 O.3       1 <0>         0.0000
     13 O2          5.8220    2.1284    4.8488 O.2       1 <0>         0.0000
     14 O3          1.4463   -1.9247   -0.1105 O.2       1 <0>         0.0000
     15 O4          0.8556   -0.4191    1.9646 O.3       1 <0>         0.0000
     16 O5          0.8996    0.6457   -0.3547 O.3       1 <0>         0.0000
     17 O6         -0.9623   -0.9855    0.2818 O.3       1 <0>         0.0000
     18 P1          0.6399   -0.7644    0.4012 P.3       1 <0>         0.0000
     19 H1          5.1859   -1.2810    3.0109 H         1 <0>         0.0000
     20 H2          3.4919    2.4914    4.2375 H         1 <0>         0.0000
     21 H3          3.0342   -1.9094    1.9879 H         1 <0>         0.0000
     22 H4          1.3441    1.8554    3.2120 H         1 <0>         0.0000
     23 H5         -0.3658   -0.9547   -2.0645 H         1 <0>         0.0000
     24 H6         -1.0574    0.6829   -2.1532 H         1 <0>         0.0000
     25 H7         -0.0948    0.0718   -3.4929 H         1 <0>         0.0000
     26 H8         -0.1245   -2.6789    2.1571 H         1 <0>         0.0000
     27 H9         -1.6244   -1.8850    2.6940 H         1 <0>         0.0000
     28 H10        -1.6501   -3.5897    2.2599 H         1 <0>         0.0000
     29 H11         1.2400    1.6607   -2.1034 H         1 <0>         0.0000
     30 H12         1.9355    0.0218   -2.0106 H         1 <0>         0.0000
     31 H13        -2.6095   -2.1989    0.4208 H         1 <0>         0.0000
     32 H14        -1.1071   -2.9910   -0.1209 H         1 <0>         0.0000
@<TRIPOS>BOND
     1    1    3 ar
     2    1    5 ar
     3    2    4 ar
     4    2    5 ar
     5    3    6 ar
     6    4    6 ar
     7    5   11 1
     8    6   15 1
     9    7    9 1
    10    8   10 1
    11    9   16 1
    12   10   17 1
    13   11   12 1
    14   11   13 2
    15   14   18 2
    16   15   18 1
    17   16   18 1
    18   17   18 1
    19    1   19 1
    20    2   20 1
    21    3   21 1
    22    4   22 1
    23    7   23 1
    24    7   24 1
    25    7   25 1
    26    8   26 1
    27    8   27 1
    28    8   28 1
    29    9   29 1
    30    9   30 1
    31   10   31 1
    32   10   32 1
@<TRIPOS>MOLECULE
*****
   32    32     0     0     0
SMALL
NO_CHARGES

@<TRIPOS>ATOM
      1 C1          0.0913   -3.2019    4.2248 C.ar      1 <0>         0.0000
      2 C2          2.2805   -2.3264    4.7519 C.ar      1 <0>         0.0000
      3 C3         -0.0418   -2.2568    3.2077 C.ar      1 <0>         0.0000
      4 C4          2.1474   -1.3813    3.7348 C.ar      1 <0>         0.0000
      5 C5          1.2524   -3.2367    4.9970 C.ar      1 <0>         0.0000
      6 C6          0.9862   -1.3465    2.9627 C.ar      1 <0>         0.0000
      7 C7          3.0787    1.0430    0.5347 C.3       1 <0>         0.0000
      8 C8         -1.1543   -0.7830   -2.0890 C.3       1 <0>         0.0000
      9 C9          2.2277    0.9829   -0.7159 C.3       1 <0>         0.0000
     10 C10        -1.5090   -1.6064   -0.8692 C.3       1 <0>         0.0000
     11 N1          1.3882   -4.1986    6.0327 N.pl3     1 <0>         0.0000
     12 O1          0.4517   -5.0085    6.2370 O.3       1 <0>         0.0000
     13 O2          2.4408   -4.2124    6.7157 O.2       1 <0>         0.0000
     14 O3          1.4463   -1.9247   -0.1105 O.2       1 <0>         0.0000
     15 O4          0.8556   -0.4191    1.9646 O.3       1 <0>         0.0000
     16 O5          0.8996    0.6457   -0.3547 O.3       1 <0>         0.0000
     17 O6         -0.9623   -0.9855    0.2818 O.3       1 <0>         0.0000
     18 P1          0.6399   -0.7644    0.4012 P.3       1 <0>         0.0000
     19 H1         -0.7174   -3.9059    4.4052 H         1 <0>         0.0000
     20 H2          3.1907   -2.3420    5.3465 H         1 <0>         0.0000
     21 H3         -0.9486   -2.2348    2.6093 H         1 <0>         0.0000
     22 H4          2.9516   -0.6745    3.5489 H         1 <0>         0.0000
     23 H5          2.7021    1.8013    1.2268 H         1 <0>         0.0000
     24 H6          3.0869    0.0732    1.0430 H         1 <0>         0.0000
     25 H7          4.1180    1.2792    0.2832 H         1 <0>         0.0000
     26 H8         -1.5640    0.2279   -2.0101 H         1 <0>         0.0000
     27 H9         -0.0678   -0.7160   -2.2070 H         1 <0>         0.0000
     28 H10        -1.5447   -1.2523   -2.9981 H         1 <0>         0.0000
     29 H11         2.6097    0.2226   -1.4038 H         1 <0>         0.0000
     30 H12         2.2200    1.9528   -1.2221 H         1 <0>         0.0000
     31 H13        -1.0963   -2.6161   -0.9545 H         1 <0>         0.0000
     32 H14        -2.5948   -1.6716   -0.7524 H         1 <0>         0.0000
@<TRIPOS>BOND
     1    1    3 ar
     2    1    5 ar
     3    2    4 ar
     4    2    5 ar
     5    3    6 ar
     6    4    6 ar
     7    5   11 1
     8    6   15 1
     9    7    9 1
    10    8   10 1
    11    9   16 1
    12   10   17 1
    13   11   12 1
    14   11   13 2
    15   14   18 2
    16   15   18 1
    17   16   18 1
    18   17   18 1
    19    1   19 1
    20    2   20 1
    21    3   21 1
    22    4   22 1
    23    7   23 1
    24    7   24 1
    25    7   25 1
    26    8   26 1
    27    8   27 1
    28    8   28 1
    29    9   29 1
    30    9   30 1
    31   10   31 1
    32   10   32 1
@<TRIPOS>MOLECULE
*****
   32    32     0     0     0
SMALL
NO_CHARGES

@<TRIPOS>ATOM
      1 C1          4.0151   -1.6648    3.3439 C.ar      1 <0>         0.0000
      2 C2          3.7811    0.6790    3.8811 C.ar      1 <0>         0.0000
      3 C3          2.7889   -1.6351    2.6798 C.ar      1 <0>         0.0000
      4 C4          2.5548    0.7088    3.2170 C.ar      1 <0>         0.0000
      5 C5          4.5112   -0.5077    3.9447 C.ar      1 <0>         0.0000
      6 C6          2.0588   -0.4483    2.6163 C.ar      1 <0>         0.0000
      7 C7          0.5787    2.9742   -0.7699 C.3       1 <0>         0.0000
      8 C8         -0.9608   -2.4462   -1.6064 C.3       1 <0>         0.0000
      9 C9          0.1738    1.7847    0.0744 C.3       1 <0>         0.0000
     10 C10        -1.5563   -1.1996   -0.9873 C.3       1 <0>         0.0000
     11 N1          5.7594   -0.5377    4.6210 N.pl3     1 <0>         0.0000
     12 O1          6.4005   -1.6154    4.6668 O.3       1 <0>         0.0000
     13 O2          6.1871    0.5143    5.1549 O.2       1 <0>         0.0000
     14 O3          1.4463   -1.9247   -0.1105 O.2       1 <0>         0.0000
     15 O4          0.8556   -0.4191    1.9646 O.3       1 <0>         0.0000
     16 O5          0.8996    0.6457   -0.3547 O.3       1 <0>         0.0000
     17 O6         -0.9623   -0.9855    0.2818 O.3       1 <0>         0.0000
     18 P1          0.6399   -0.7644    0.4012 P.3       1 <0>         0.0000
     19 H1          4.5743   -2.5963    3.3858 H         1 <0>         0.0000
     20 H2          4.1556    1.5881    4.3454 H         1 <0>         0.0000
     21 H3          2.4078   -2.5395    2.2135 H         1 <0>         0.0000
     22 H4          1.9905    1.6362    3.1712 H         1 <0>         0.0000
     23 H5          1.6473    3.1815   -0.6651 H         1 <0>         0.0000
     24 H6          0.3559    2.7916   -1.8263 H         1 <0>         0.0000
     25 H7          0.0154    3.8660   -0.4754 H         1 <0>         0.0000
     26 H8          0.1190   -2.3376   -1.7404 H         1 <0>         0.0000
     27 H9         -1.1527   -3.3201   -0.9752 H         1 <0>         0.0000
     28 H10        -1.4189   -2.6500   -2.5799 H         1 <0>         0.0000
     29 H11        -0.8959    1.5828   -0.0350 H         1 <0>         0.0000
     30 H12         0.3978    1.9686    1.1294 H         1 <0>         0.0000
     31 H13        -2.6363   -1.3147   -0.8560 H         1 <0>         0.0000
     32 H14        -1.3629   -0.3273   -1.6187 H         1 <0>         0.0000
@<TRIPOS>BOND
     1    1    3 ar
     2    1    5 ar
     3    2    4 ar
     4    2    5 ar
     5    3    6 ar
     6    4    6 ar
     7    5   11 1
     8    6   15 1
     9    7    9 1
    10    8   10 1
    11    9   16 1
    12   10   17 1
    13   11   12 1
    14   11   13 2
    15   14   18 2
    16   15   18 1
    17   16   18 1
    18   17   18 1
    19    1   19 1
    20    2   20 1
    21    3   21 1
    22    4   22 1
    23    7   23 1
    24    7   24 1
    25    7   25 1
    26    8   26 1
    27    8   27 1
    28    8   28 1
    29    9   29 1
    30    9   30 1
    31   10   31 1
    32   10   32 1
@<TRIPOS>MOLECULE
*****
   32    32     0     0     0
SMALL
NO_CHARGES

@<TRIPOS>ATOM
      1 C1          1.0277   -3.3697    4.1328 C.ar      1 <0>         0.0000
      2 C2         -0.5847   -1.8125    5.0340 C.ar      1 <0>         0.0000
      3 C3          1.2833   -2.4944    3.0774 C.ar      1 <0>         0.0000
      4 C4         -0.3292   -0.9371    3.9785 C.ar      1 <0>         0.0000
      5 C5          0.0937   -3.0288    5.1112 C.ar      1 <0>         0.0000
      6 C6          0.6048   -1.2781    3.0002 C.ar      1 <0>         0.0000
      7 C7         -0.9533    1.8158    0.5915 C.3       1 <0>         0.0000
      8 C8         -3.0494   -1.3745   -0.8096 C.3       1 <0>         0.0000
      9 C9          0.5335    1.8437    0.3079 C.3       1 <0>         0.0000
     10 C10        -1.5563   -1.1996   -0.9873 C.3       1 <0>         0.0000
     11 N1         -0.1668   -3.9198    6.1856 N.pl3     1 <0>         0.0000
     12 O1          0.4541   -5.0090    6.2366 O.3       1 <0>         0.0000
     13 O2         -1.0112   -3.5938    7.0548 O.2       1 <0>         0.0000
     14 O3          1.4463   -1.9247   -0.1105 O.2       1 <0>         0.0000
     15 O4          0.8556   -0.4191    1.9646 O.3       1 <0>         0.0000
     16 O5          0.8996    0.6457   -0.3547 O.3       1 <0>         0.0000
     17 O6         -0.9623   -0.9855    0.2818 O.3       1 <0>         0.0000
     18 P1          0.6399   -0.7644    0.4012 P.3       1 <0>         0.0000
     19 H1          1.5637   -4.3144    4.1813 H         1 <0>         0.0000
     20 H2         -1.3156   -1.5344    5.7894 H         1 <0>         0.0000
     21 H3          2.0122   -2.7653    2.3185 H         1 <0>         0.0000
     22 H4         -0.8612    0.0088    3.9236 H         1 <0>         0.0000
     23 H5         -1.5263    1.7415   -0.3370 H         1 <0>         0.0000
     24 H6         -1.2080    0.9659    1.2331 H         1 <0>         0.0000
     25 H7         -1.2613    2.7211    1.1251 H         1 <0>         0.0000
     26 H8         -3.2684   -2.2356   -0.1721 H         1 <0>         0.0000
     27 H9         -3.4920   -0.4798   -0.3596 H         1 <0>         0.0000
     28 H10        -3.5390   -1.5187   -1.7785 H         1 <0>         0.0000
     29 H11         1.1007    1.9181    1.2405 H         1 <0>         0.0000
     30 H12         0.7861    2.6929   -0.3340 H         1 <0>         0.0000
     31 H13        -1.3442   -0.3369   -1.6258 H         1 <0>         0.0000
     32 H14        -1.1155   -2.0947   -1.4362 H         1 <0>         0.0000
@<TRIPOS>BOND
     1    1    3 ar
     2    1    5 ar
     3    2    4 ar
     4    2    5 ar
     5    3    6 ar
     6    4    6 ar
     7    5   11 1
     8    6   15 1
     9    7    9 1
    10    8   10 1
    11    9   16 1
    12   10   17 1
    13   11   12 1
    14   11   13 2
    15   14   18 2
    16   15   18 1
    17   16   18 1
    18   17   18 1
    19    1   19 1
    20    2   20 1
    21    3   21 1
    22    4   22 1
    23    7   23 1
    24    7   24 1
    25    7   25 1
    26    8   26 1
    27    8   27 1
    28    8   28 1
    29    9   29 1
    30    9   30 1
    31   10   31 1
    32   10   32 1
@<TRIPOS>MOLECULE
*****
   32    32     0     0     0
SMALL
NO_CHARGES

@<TRIPOS>ATOM
      1 C1          4.3497   -0.5877    3.0599 C.ar      1 <0>         0.0000
      2 C2          3.4012    1.5255    3.7466 C.ar      1 <0>         0.0000
      3 C3          3.1326   -0.9456    2.4801 C.ar      1 <0>         0.0000
      4 C4          2.1841    1.1676    3.1668 C.ar      1 <0>         0.0000
      5 C5          4.4840    0.6478    3.6932 C.ar      1 <0>         0.0000
      6 C6          2.0498   -0.0680    2.5336 C.ar      1 <0>         0.0000
      7 C7          2.2245    2.3317   -1.4032 C.3       1 <0>         0.0000
      8 C8         -1.6581    0.8605    1.6259 C.3       1 <0>         0.0000
      9 C9          2.2277    0.9829   -0.7159 C.3       1 <0>         0.0000
     10 C10        -1.8366    0.1297    0.3122 C.3       1 <0>         0.0000
     11 N1          5.7228    1.0124    4.2837 N.pl3     1 <0>         0.0000
     12 O1          6.6845    0.2085    4.2248 O.3       1 <0>         0.0000
     13 O2          5.8220    2.1284    4.8488 O.2       1 <0>         0.0000
     14 O3          1.4463   -1.9247   -0.1105 O.2       1 <0>         0.0000
     15 O4          0.8556   -0.4191    1.9646 O.3       1 <0>         0.0000
     16 O5          0.8996    0.6457   -0.3547 O.3       1 <0>         0.0000
     17 O6         -0.9623   -0.9855    0.2818 O.3       1 <0>         0.0000
     18 P1          0.6399   -0.7644    0.4012 P.3       1 <0>         0.0000
     19 H1          5.1859   -1.2810    3.0109 H         1 <0>         0.0000
     20 H2          3.4919    2.4914    4.2375 H         1 <0>         0.0000
     21 H3          3.0342   -1.9094    1.9879 H         1 <0>         0.0000
     22 H4          1.3441    1.8554    3.2120 H         1 <0>         0.0000
     23 H5          1.6123    2.3067   -2.3089 H         1 <0>         0.0000
     24 H6          1.8340    3.1051   -0.7337 H         1 <0>         0.0000
     25 H7          3.2431    2.6294   -1.6734 H         1 <0>         0.0000
     26 H8         -1.8954    0.2080    2.4707 H         1 <0>         0.0000
     27 H9         -0.6283    1.2168    1.7326 H         1 <0>         0.0000
     28 H10        -2.3059    1.7425    1.6679 H         1 <0>         0.0000
     29 H11         2.8418    1.0147    0.1891 H         1 <0>         0.0000
     30 H12         2.6174    0.2112   -1.3864 H         1 <0>         0.0000
     31 H13        -1.5978    0.7878   -0.5286 H         1 <0>         0.0000
     32 H14        -2.8658   -0.2263    0.2075 H         1 <0>         0.0000
@<TRIPOS>BOND
     1    1    3 ar
     2    1    5 ar
     3    2    4 ar
     4    2    5 ar
     5    3    6 ar
     6    4    6 ar
     7    5   11 1
     8    6   15 1
     9    7    9 1
    10    8   10 1
    11    9   16 1
    12   10   17 1
    13   11   12 1
    14   11   13 2
    15   14   18 2
    16   15   18 1
    17   16   18 1
    18   17   18 1
    19    1   19 1
    20    2   20 1
    21    3   21 1
    22    4   22 1
    23    7   23 1
    24    7   24 1
    25    7   25 1
    26    8   26 1
    27    8   27 1
    28    8   28 1
    29    9   29 1
    30    9   30 1
    31   10   31 1
    32   10   32 1
@<TRIPOS>MOLECULE
*****
   32    32     0     0     0
SMALL
NO_CHARGES

@<TRIPOS>ATOM
      1 C1         -1.6933    2.0271    2.9421 C.ar      1 <0>         0.0000
      2 C2         -0.9953    0.7825    4.8916 C.ar      1 <0>         0.0000
      3 C3         -0.8066    1.2920    2.1553 C.ar      1 <0>         0.0000
      4 C4         -0.1086    0.0474    4.1048 C.ar      1 <0>         0.0000
      5 C5         -1.7876    1.7724    4.3103 C.ar      1 <0>         0.0000
      6 C6         -0.0143    0.3022    2.7366 C.ar      1 <0>         0.0000
      7 C7          3.2838    0.5769   -0.2642 C.3       1 <0>         0.0000
      8 C8         -3.0270   -2.1796    0.3797 C.3       1 <0>         0.0000
      9 C9          2.0432    1.4023    0.0030 C.3       1 <0>         0.0000
     10 C10        -1.5270   -2.2533    0.5694 C.3       1 <0>         0.0000
     11 N1         -2.6900    2.5207    5.1115 N.pl3     1 <0>         0.0000
     12 O1         -3.3937    3.4068    4.5691 O.3       1 <0>         0.0000
     13 O2         -2.7588    2.2757    6.3403 O.2       1 <0>         0.0000
     14 O3          1.4463   -1.9247   -0.1105 O.2       1 <0>         0.0000
     15 O4          0.8556   -0.4191    1.9646 O.3       1 <0>         0.0000
     16 O5          0.8996    0.6457   -0.3547 O.3       1 <0>         0.0000
     17 O6         -0.9623   -0.9855    0.2818 O.3       1 <0>         0.0000
     18 P1          0.6399   -0.7644    0.4012 P.3       1 <0>         0.0000
     19 H1         -2.3054    2.7956    2.4763 H         1 <0>         0.0000
     20 H2         -1.0582    0.5739    5.9568 H         1 <0>         0.0000
     21 H3         -0.7379    1.4948    1.0900 H         1 <0>         0.0000
     22 H4          0.5063   -0.7222    4.5635 H         1 <0>         0.0000
     23 H5          3.2752   -0.3431    0.3268 H         1 <0>         0.0000
     24 H6          3.3520    0.3149   -1.3252 H         1 <0>         0.0000
     25 H7          4.1863    1.1463   -0.0183 H         1 <0>         0.0000
     26 H8         -3.4695   -1.4398    1.0526 H         1 <0>         0.0000
     27 H9         -3.2728   -1.9101   -0.6527 H         1 <0>         0.0000
     28 H10        -3.4887   -3.1536    0.5729 H         1 <0>         0.0000
     29 H11         2.0581    2.3208   -0.5911 H         1 <0>         0.0000
     30 H12         1.9761    1.6624    1.0636 H         1 <0>         0.0000
     31 H13        -1.0907   -2.9950   -0.1065 H         1 <0>         0.0000
     32 H14        -1.2832   -2.5218    1.6016 H         1 <0>         0.0000
@<TRIPOS>BOND
     1    1    3 ar
     2    1    5 ar
     3    2    4 ar
     4    2    5 ar
     5    3    6 ar
     6    4    6 ar
     7    5   11 1
     8    6   15 1
     9    7    9 1
    10    8   10 1
    11    9   16 1
    12   10   17 1
    13   11   12 1
    14   11   13 2
    15   14   18 2
    16   15   18 1
    17   16   18 1
    18   17   18 1
    19    1   19 1
    20    2   20 1
    21    3   21 1
    22    4   22 1
    23    7   23 1
    24    7   24 1
    25    7   25 1
    26    8   26 1
    27    8   27 1
    28    8   28 1
    29    9   29 1
    30    9   30 1
    31   10   31 1
    32   10   32 1
@<TRIPOS>MOLECULE
*****
   32    32     0     0     0
SMALL
NO_CHARGES

@<TRIPOS>ATOM
      1 C1         -0.6533   -3.1170    3.9347 C.ar      1 <0>         0.0000
      2 C2         -0.6159   -1.0931    5.2536 C.ar      1 <0>         0.0000
      3 C3         -0.0527   -2.4375    2.8749 C.ar      1 <0>         0.0000
      4 C4         -0.0153   -0.4136    4.1938 C.ar      1 <0>         0.0000
      5 C5         -0.9349   -2.4448    5.1241 C.ar      1 <0>         0.0000
      6 C6          0.2663   -1.0858    3.0045 C.ar      1 <0>         0.0000
      7 C7          3.2838    0.5769   -0.2642 C.3       1 <0>         0.0000
      8 C8         -1.0322   -1.7228   -1.9876 C.3       1 <0>         0.0000
      9 C9          2.0432    1.4023    0.0030 C.3       1 <0>         0.0000
     10 C10        -1.6165   -0.7787   -0.9585 C.3       1 <0>         0.0000
     11 N1         -1.5465   -3.1363    6.2030 N.pl3     1 <0>         0.0000
     12 O1         -1.8255   -4.3520    6.0661 O.3       1 <0>         0.0000
     13 O2         -1.7916   -2.5126    7.2640 O.2       1 <0>         0.0000
     14 O3          1.4463   -1.9247   -0.1105 O.2       1 <0>         0.0000
     15 O4          0.8556   -0.4191    1.9646 O.3       1 <0>         0.0000
     16 O5          0.8996    0.6457   -0.3547 O.3       1 <0>         0.0000
     17 O6         -0.9623   -0.9855    0.2818 O.3       1 <0>         0.0000
     18 P1          0.6399   -0.7644    0.4012 P.3       1 <0>         0.0000
     19 H1         -0.8964   -4.1706    3.8207 H         1 <0>         0.0000
     20 H2         -0.8303   -0.5569    6.1748 H         1 <0>         0.0000
     21 H3          0.1645   -2.9666    1.9510 H         1 <0>         0.0000
     22 H4          0.2305    0.6394    4.3006 H         1 <0>         0.0000
     23 H5          3.2752   -0.3431    0.3268 H         1 <0>         0.0000
     24 H6          3.3520    0.3149   -1.3252 H         1 <0>         0.0000
     25 H7          4.1863    1.1463   -0.0183 H         1 <0>         0.0000
     26 H8          0.0374   -1.5396   -2.1224 H         1 <0>         0.0000
     27 H9         -1.1767   -2.7643   -1.6820 H         1 <0>         0.0000
     28 H10        -1.5358   -1.6015   -2.9524 H         1 <0>         0.0000
     29 H11         2.0581    2.3208   -0.5911 H         1 <0>         0.0000
     30 H12         1.9761    1.6624    1.0636 H         1 <0>         0.0000
     31 H13        -2.6863   -0.9673   -0.8285 H         1 <0>         0.0000
     32 H14        -1.4705    0.2614   -1.2650 H         1 <0>         0.0000
@<TRIPOS>BOND
     1    1    3 ar
     2    1    5 ar
     3    2    4 ar
     4    2    5 ar
     5    3    6 ar
     6    4    6 ar
     7    5   11 1
     8    6   15 1
     9    7    9 1
    10    8   10 1
    11    9   16 1
    12   10   17 1
    13   11   12 1
    14   11   13 2
    15   14   18 2
    16   15   18 1
    17   16   18 1
    18   17   18 1
    19    1   19 1
    20    2   20 1
    21    3   21 1
    22    4   22 1
    23    7   23 1
    24    7   24 1
    25    7   25 1
    26    8   26 1
    27    8   27 1
    28    8   28 1
    29    9   29 1
    30    9   30 1
    31   10   31 1
    32   10   32 1
@<TRIPOS>MOLECULE
*****
   32    32     0     0     0
SMALL
NO_CHARGES

@<TRIPOS>ATOM
      1 C1          4.2253    0.9687    2.3591 C.ar      1 <0>         0.0000
      2 C2          2.8157    1.7809    4.1453 C.ar      1 <0>         0.0000
      3 C3          3.1513    0.2457    1.8402 C.ar      1 <0>         0.0000
      4 C4          1.7417    1.0578    3.6264 C.ar      1 <0>         0.0000
      5 C5          4.0576    1.7363    3.5117 C.ar      1 <0>         0.0000
      6 C6          1.9095    0.2902    2.4738 C.ar      1 <0>         0.0000
      7 C7          0.7078   -0.1913   -2.5818 C.3       1 <0>         0.0000
      8 C8         -1.0725   -3.1717    1.2340 C.3       1 <0>         0.0000
      9 C9          0.2616    0.8710   -1.5999 C.3       1 <0>         0.0000
     10 C10        -1.6441   -1.7700    1.2455 C.3       1 <0>         0.0000
     11 N1          5.1508    2.4723    4.0403 N.pl3     1 <0>         0.0000
     12 O1          6.2596    2.4186    3.4553 O.3       1 <0>         0.0000
     13 O2          4.9784    3.1560    5.0783 O.2       1 <0>         0.0000
     14 O3          1.4463   -1.9247   -0.1105 O.2       1 <0>         0.0000
     15 O4          0.8556   -0.4191    1.9646 O.3       1 <0>         0.0000
     16 O5          0.8996    0.6457   -0.3547 O.3       1 <0>         0.0000
     17 O6         -0.9623   -0.9855    0.2818 O.3       1 <0>         0.0000
     18 P1          0.6399   -0.7644    0.4012 P.3       1 <0>         0.0000
     19 H1          5.1879    0.9256    1.8553 H         1 <0>         0.0000
     20 H2          2.6711    2.3746    5.0446 H         1 <0>         0.0000
     21 H3          3.2881   -0.3502    0.9419 H         1 <0>         0.0000
     22 H4          0.7768    1.0962    4.1246 H         1 <0>         0.0000
     23 H5          1.7902   -0.1534   -2.7325 H         1 <0>         0.0000
     24 H6          0.4356   -1.1888   -2.2216 H         1 <0>         0.0000
     25 H7          0.2116   -0.0558   -3.5486 H         1 <0>         0.0000
     26 H8         -1.1994   -3.6368    0.2525 H         1 <0>         0.0000
     27 H9         -0.0063   -3.1559    1.4826 H         1 <0>         0.0000
     28 H10        -1.5656   -3.7956    1.9869 H         1 <0>         0.0000
     29 H11        -0.8218    0.8277   -1.4537 H         1 <0>         0.0000
     30 H12         0.5350    1.8669   -1.9610 H         1 <0>         0.0000
     31 H13        -1.5139   -1.3105    2.2299 H         1 <0>         0.0000
     32 H14        -2.7092   -1.7875    0.9962 H         1 <0>         0.0000
@<TRIPOS>BOND
     1    1    3 ar
     2    1    5 ar
     3    2    4 ar
     4    2    5 ar
     5    3    6 ar
     6    4    6 ar
     7    5   11 1
     8    6   15 1
     9    7    9 1
    10    8   10 1
    11    9   16 1
    12   10   17 1
    13   11   12 1
    14   11   13 2
    15   14   18 2
    16   15   18 1
    17   16   18 1
    18   17   18 1
    19    1   19 1
    20    2   20 1
    21    3   21 1
    22    4   22 1
    23    7   23 1
    24    7   24 1
    25    7   25 1
    26    8   26 1
    27    8   27 1
    28    8   28 1
    29    9   29 1
    30    9   30 1
    31   10   31 1
    32   10   32 1
@<TRIPOS>MOLECULE
*****
   32    32     0     0     0
SMALL
NO_CHARGES

@<TRIPOS>ATOM
      1 C1          4.3277    0.3460    2.8569 C.ar      1 <0>         0.0000
      2 C2          3.4684   -1.3314    4.3685 C.ar      1 <0>         0.0000
      3 C3          3.1015    0.3756    2.1927 C.ar      1 <0>         0.0000
      4 C4          2.2422   -1.3018    3.7042 C.ar      1 <0>         0.0000
      5 C5          4.5111   -0.5076    3.9448 C.ar      1 <0>         0.0000
      6 C6          2.0588   -0.4483    2.6163 C.ar      1 <0>         0.0000
      7 C7         -0.1849    0.0697   -2.4016 C.3       1 <0>         0.0000
      8 C8         -1.2055   -2.6228    2.0018 C.3       1 <0>         0.0000
      9 C9          1.0649    0.6361   -1.7621 C.3       1 <0>         0.0000
     10 C10        -1.5270   -2.2533    0.5694 C.3       1 <0>         0.0000
     11 N1          5.7593   -0.5381    4.6211 N.pl3     1 <0>         0.0000
     12 O1          6.6846    0.2109    4.2241 O.3       1 <0>         0.0000
     13 O2          5.9033   -1.3135    5.5971 O.2       1 <0>         0.0000
     14 O3          1.4463   -1.9247   -0.1105 O.2       1 <0>         0.0000
     15 O4          0.8556   -0.4191    1.9646 O.3       1 <0>         0.0000
     16 O5          0.8996    0.6457   -0.3547 O.3       1 <0>         0.0000
     17 O6         -0.9623   -0.9855    0.2818 O.3       1 <0>         0.0000
     18 P1          0.6399   -0.7644    0.4012 P.3       1 <0>         0.0000
     19 H1          5.1321    0.9936    2.5167 H         1 <0>         0.0000
     20 H2          3.5978   -2.0019    5.2146 H         1 <0>         0.0000
     21 H3          2.9645    1.0428    1.3460 H         1 <0>         0.0000
     22 H4          1.4338   -1.9463    4.0387 H         1 <0>         0.0000
     23 H5         -0.3658   -0.9547   -2.0645 H         1 <0>         0.0000
     24 H6         -1.0574    0.6829   -2.1532 H         1 <0>         0.0000
     25 H7         -0.0948    0.0718   -3.4929 H         1 <0>         0.0000
     26 H8         -0.1245   -2.6789    2.1571 H         1 <0>         0.0000
     27 H9         -1.6244   -1.8850    2.6940 H         1 <0>         0.0000
     28 H10        -1.6501   -3.5897    2.2599 H         1 <0>         0.0000
     29 H11         1.2400    1.6607   -2.1034 H         1 <0>         0.0000
     30 H12         1.9355    0.0218   -2.0106 H         1 <0>         0.0000
     31 H13        -2.6095   -2.1989    0.4208 H         1 <0>         0.0000
     32 H14        -1.1071   -2.9910   -0.1209 H         1 <0>         0.0000
@<TRIPOS>BOND
     1    1    3 ar
     2    1    5 ar
     3    2    4 ar
     4    2    5 ar
     5    3    6 ar
     6    4    6 ar
     7    5   11 1
     8    6   15 1
     9    7    9 1
    10    8   10 1
    11    9   16 1
    12   10   17 1
    13   11   12 1
    14   11   13 2
    15   14   18 2
    16   15   18 1
    17   16   18 1
    18   17   18 1
    19    1   19 1
    20    2   20 1
    21    3   21 1
    22    4   22 1
    23    7   23 1
    24    7   24 1
    25    7   25 1
    26    8   26 1
    27    8   27 1
    28    8   28 1
    29    9   29 1
    30    9   30 1
    31   10   31 1
    32   10   32 1
@<TRIPOS>MOLECULE
*****
   32    32     0     0     0
SMALL
NO_CHARGES

@<TRIPOS>ATOM
      1 C1          4.2265    0.9658    2.3597 C.ar      1 <0>         0.0000
      2 C2          3.5243   -0.0277    4.4470 C.ar      1 <0>         0.0000
      3 C3          3.0095    0.6077    1.7798 C.ar      1 <0>         0.0000
      4 C4          2.3072   -0.3857    3.8672 C.ar      1 <0>         0.0000
      5 C5          4.4839    0.6480    3.6933 C.ar      1 <0>         0.0000
      6 C6          2.0498   -0.0680    2.5336 C.ar      1 <0>         0.0000
      7 C7          1.2927    2.0538   -2.2415 C.3       1 <0>         0.0000
      8 C8         -0.9865   -3.3672    0.4415 C.3       1 <0>         0.0000
      9 C9          1.0649    0.6361   -1.7621 C.3       1 <0>         0.0000
     10 C10        -1.5805   -2.0713    0.9510 C.3       1 <0>         0.0000
     11 N1          5.7229    1.0121    4.2838 N.pl3     1 <0>         0.0000
     12 O1          6.5728    1.6195    3.5885 O.3       1 <0>         0.0000
     13 O2          5.9342    0.7163    5.4849 O.2       1 <0>         0.0000
     14 O3          1.4463   -1.9247   -0.1105 O.2       1 <0>         0.0000
     15 O4          0.8556   -0.4191    1.9646 O.3       1 <0>         0.0000
     16 O5          0.8996    0.6457   -0.3547 O.3       1 <0>         0.0000
     17 O6         -0.9623   -0.9855    0.2818 O.3       1 <0>         0.0000
     18 P1          0.6399   -0.7644    0.4012 P.3       1 <0>         0.0000
     19 H1          4.9657    1.4925    1.7612 H         1 <0>         0.0000
     20 H2          3.7120   -0.2821    5.4873 H         1 <0>         0.0000
     21 H3          2.8146    0.8583    0.7406 H         1 <0>         0.0000
     22 H4          1.5637   -0.9123    4.4593 H         1 <0>         0.0000
     23 H5          0.4390    2.6911   -1.9948 H         1 <0>         0.0000
     24 H6          2.1932    2.4762   -1.7836 H         1 <0>         0.0000
     25 H7          1.4473    2.0744   -3.3254 H         1 <0>         0.0000
     26 H8         -1.1553   -3.4779   -0.6332 H         1 <0>         0.0000
     27 H9          0.0907   -3.4006    0.6355 H         1 <0>         0.0000
     28 H10        -1.4297   -4.2245    0.9589 H         1 <0>         0.0000
     29 H11         1.9223    0.0041   -2.0120 H         1 <0>         0.0000
     30 H12         0.1644    0.2159   -2.2200 H         1 <0>         0.0000
     31 H13        -1.4082   -1.9667    2.0263 H         1 <0>         0.0000
     32 H14        -2.6565   -2.0392    0.7556 H         1 <0>         0.0000
@<TRIPOS>BOND
     1    1    3 ar
     2    1    5 ar
     3    2    4 ar
     4    2    5 ar
     5    3    6 ar
     6    4    6 ar
     7    5   11 1
     8    6   15 1
     9    7    9 1
    10    8   10 1
    11    9   16 1
    12   10   17 1
    13   11   12 1
    14   11   13 2
    15   14   18 2
    16   15   18 1
    17   16   18 1
    18   17   18 1
    19    1   19 1
    20    2   20 1
    21    3   21 1
    22    4   22 1
    23    7   23 1
    24    7   24 1
    25    7   25 1
    26    8   26 1
    27    8   27 1
    28    8   28 1
    29    9   29 1
    30    9   30 1
    31   10   31 1
    32   10   32 1
@<TRIPOS>MOLECULE
*****
   32    32     0     0     0
SMALL
NO_CHARGES

@<TRIPOS>ATOM
      1 C1          0.0913   -3.2019    4.2248 C.ar      1 <0>         0.0000
      2 C2          2.2805   -2.3264    4.7519 C.ar      1 <0>         0.0000
      3 C3         -0.0418   -2.2568    3.2077 C.ar      1 <0>         0.0000
      4 C4          2.1474   -1.3813    3.7348 C.ar      1 <0>         0.0000
      5 C5          1.2524   -3.2367    4.9970 C.ar      1 <0>         0.0000
      6 C6          0.9862   -1.3465    2.9627 C.ar      1 <0>         0.0000
      7 C7         -0.9533    1.8158    0.5915 C.3       1 <0>         0.0000
      8 C8         -3.0494   -1.3745   -0.8096 C.3       1 <0>         0.0000
      9 C9          0.5335    1.8437    0.3079 C.3       1 <0>         0.0000
     10 C10        -1.5563   -1.1996   -0.9873 C.3       1 <0>         0.0000
     11 N1          1.3882   -4.1986    6.0327 N.pl3     1 <0>         0.0000
     12 O1          0.4517   -5.0085    6.2370 O.3       1 <0>         0.0000
     13 O2          2.4408   -4.2124    6.7157 O.2       1 <0>         0.0000
     14 O3          1.4463   -1.9247   -0.1105 O.2       1 <0>         0.0000
     15 O4          0.8556   -0.4191    1.9646 O.3       1 <0>         0.0000
     16 O5          0.8996    0.6457   -0.3547 O.3       1 <0>         0.0000
     17 O6         -0.9623   -0.9855    0.2818 O.3       1 <0>         0.0000
     18 P1          0.6399   -0.7644    0.4012 P.3       1 <0>         0.0000
     19 H1         -0.7174   -3.9059    4.4052 H         1 <0>         0.0000
     20 H2          3.1907   -2.3420    5.3465 H         1 <0>         0.0000
     21 H3         -0.9486   -2.2348    2.6093 H         1 <0>         0.0000
     22 H4          2.9516   -0.6745    3.5489 H         1 <0>         0.0000
     23 H5         -1.5263    1.7415   -0.3370 H         1 <0>         0.0000
     24 H6         -1.2080    0.9659    1.2331 H         1 <0>         0.0000
     25 H7         -1.2613    2.7211    1.1251 H         1 <0>         0.0000
     26 H8         -3.2684   -2.2356   -0.1721 H         1 <0>         0.0000
     27 H9         -3.4920   -0.4798   -0.3596 H         1 <0>         0.0000
     28 H10        -3.5390   -1.5187   -1.7785 H         1 <0>         0.0000
     29 H11         1.1007    1.9181    1.2405 H         1 <0>         0.0000
     30 H12         0.7861    2.6929   -0.3340 H         1 <0>         0.0000
     31 H13        -1.3442   -0.3369   -1.6258 H         1 <0>         0.0000
     32 H14        -1.1155   -2.0947   -1.4362 H         1 <0>         0.0000
@<TRIPOS>BOND
     1    1    3 ar
     2    1    5 ar
     3    2    4 ar
     4    2    5 ar
     5    3    6 ar
     6    4    6 ar
     7    5   11 1
     8    6   15 1
     9    7    9 1
    10    8   10 1
    11    9   16 1
    12   10   17 1
    13   11   12 1
    14   11   13 2
    15   14   18 2
    16   15   18 1
    17   16   18 1
    18   17   18 1
    19    1   19 1
    20    2   20 1
    21    3   21 1
    22    4   22 1
    23    7   23 1
    24    7   24 1
    25    7   25 1
    26    8   26 1
    27    8   27 1
    28    8   28 1
    29    9   29 1
    30    9   30 1
    31   10   31 1
    32   10   32 1
@<TRIPOS>MOLECULE
*****
   32    32     0     0     0
SMALL
NO_CHARGES

@<TRIPOS>ATOM
      1 C1          0.4869   -3.5298    3.8684 C.ar      1 <0>         0.0000
      2 C2          1.8850   -1.9985    5.1084 C.ar      1 <0>         0.0000
      3 C3          0.3537   -2.5847    2.8513 C.ar      1 <0>         0.0000
      4 C4          1.7519   -1.0533    4.0912 C.ar      1 <0>         0.0000
      5 C5          1.2525   -3.2367    4.9970 C.ar      1 <0>         0.0000
      6 C6          0.9862   -1.3465    2.9627 C.ar      1 <0>         0.0000
      7 C7          3.0787    1.0430    0.5347 C.3       1 <0>         0.0000
      8 C8         -1.6581    0.8605    1.6259 C.3       1 <0>         0.0000
      9 C9          2.2277    0.9829   -0.7159 C.3       1 <0>         0.0000
     10 C10        -1.8366    0.1297    0.3122 C.3       1 <0>         0.0000
     11 N1          1.3881   -4.1986    6.0327 N.pl3     1 <0>         0.0000
     12 O1          0.8110   -5.3064    5.9132 O.3       1 <0>         0.0000
     13 O2          2.0811   -3.9144    7.0395 O.2       1 <0>         0.0000
     14 O3          1.4463   -1.9247   -0.1105 O.2       1 <0>         0.0000
     15 O4          0.8556   -0.4191    1.9646 O.3       1 <0>         0.0000
     16 O5          0.8996    0.6457   -0.3547 O.3       1 <0>         0.0000
     17 O6         -0.9623   -0.9855    0.2818 O.3       1 <0>         0.0000
     18 P1          0.6399   -0.7644    0.4012 P.3       1 <0>         0.0000
     19 H1         -0.0110   -4.4912    3.7689 H         1 <0>         0.0000
     20 H2          2.4844   -1.7567    5.9827 H         1 <0>         0.0000
     21 H3         -0.2437   -2.8189    1.9744 H         1 <0>         0.0000
     22 H4          2.2467   -0.0904    4.1839 H         1 <0>         0.0000
     23 H5          2.7021    1.8013    1.2268 H         1 <0>         0.0000
     24 H6          3.0869    0.0732    1.0430 H         1 <0>         0.0000
     25 H7          4.1180    1.2792    0.2832 H         1 <0>         0.0000
     26 H8         -1.8954    0.2080    2.4707 H         1 <0>         0.0000
     27 H9         -0.6283    1.2168    1.7326 H         1 <0>         0.0000
     28 H10        -2.3059    1.7425    1.6679 H         1 <0>         0.0000
     29 H11         2.6097    0.2226   -1.4038 H         1 <0>         0.0000
     30 H12         2.2200    1.9528   -1.2221 H         1 <0>         0.0000
     31 H13        -1.5978    0.7878   -0.5286 H         1 <0>         0.0000
     32 H14        -2.8658   -0.2263    0.2075 H         1 <0>         0.0000
@<TRIPOS>BOND
     1    1    3 ar
     2    1    5 ar
     3    2    4 ar
     4    2    5 ar
     5    3    6 ar
     6    4    6 ar
     7    5   11 1
     8    6   15 1
     9    7    9 1
    10    8   10 1
    11    9   16 1
    12   10   17 1
    13   11   12 1
    14   11   13 2
    15   14   18 2
    16   15   18 1
    17   16   18 1
    18   17   18 1
    19    1   19 1
    20    2   20 1
    21    3   21 1
    22    4   22 1
    23    7   23 1
    24    7   24 1
    25    7   25 1
    26    8   26 1
    27    8   27 1
    28    8   28 1
    29    9   29 1
    30    9   30 1
    31   10   31 1
    32   10   32 1
@<TRIPOS>MOLECULE
*****
   32    32     0     0     0
SMALL
NO_CHARGES

@<TRIPOS>ATOM
      1 C1          2.1644   -3.2146    3.9417 C.ar      1 <0>         0.0000
      2 C2          0.2076   -2.3134    5.0353 C.ar      1 <0>         0.0000
      3 C3          2.0312   -2.2696    2.9245 C.ar      1 <0>         0.0000
      4 C4          0.0744   -1.3684    4.0181 C.ar      1 <0>         0.0000
      5 C5          1.2526   -3.2366    4.9971 C.ar      1 <0>         0.0000
      6 C6          0.9862   -1.3465    2.9627 C.ar      1 <0>         0.0000
      7 C7          2.2086    2.4977   -1.0990 C.3       1 <0>         0.0000
      8 C8         -1.6581    0.8605    1.6259 C.3       1 <0>         0.0000
      9 C9          2.2078    1.1900   -0.3364 C.3       1 <0>         0.0000
     10 C10        -1.8366    0.1297    0.3122 C.3       1 <0>         0.0000
     11 N1          1.3878   -4.1986    6.0327 N.pl3     1 <0>         0.0000
     12 O1          2.3347   -5.0203    5.9796 O.3       1 <0>         0.0000
     13 O2          0.5564   -4.2012    6.9726 O.2       1 <0>         0.0000
     14 O3          1.4463   -1.9247   -0.1105 O.2       1 <0>         0.0000
     15 O4          0.8556   -0.4191    1.9646 O.3       1 <0>         0.0000
     16 O5          0.8996    0.6457   -0.3547 O.3       1 <0>         0.0000
     17 O6         -0.9623   -0.9855    0.2818 O.3       1 <0>         0.0000
     18 P1          0.6399   -0.7644    0.4012 P.3       1 <0>         0.0000
     19 H1          2.9837   -3.9282    3.9001 H         1 <0>         0.0000
     20 H2         -0.5104   -2.3196    5.8517 H         1 <0>         0.0000
     21 H3          2.7448   -2.2572    2.1052 H         1 <0>         0.0000
     22 H4         -0.7419   -0.6521    4.0531 H         1 <0>         0.0000
     23 H5          1.9097    2.3428   -2.1395 H         1 <0>         0.0000
     24 H6          1.5219    3.2145   -0.6369 H         1 <0>         0.0000
     25 H7          3.2040    2.9539   -1.0817 H         1 <0>         0.0000
     26 H8         -1.8954    0.2080    2.4707 H         1 <0>         0.0000
     27 H9         -0.6283    1.2168    1.7326 H         1 <0>         0.0000
     28 H10        -2.3059    1.7425    1.6679 H         1 <0>         0.0000
     29 H11         2.5076    1.3519    0.7033 H         1 <0>         0.0000
     30 H12         2.8938    0.4747   -0.7999 H         1 <0>         0.0000
     31 H13        -1.5978    0.7878   -0.5286 H         1 <0>         0.0000
     32 H14        -2.8658   -0.2263    0.2075 H         1 <0>         0.0000
@<TRIPOS>BOND
     1    1    3 ar
     2    1    5 ar
     3    2    4 ar
     4    2    5 ar
     5    3    6 ar
     6    4    6 ar
     7    5   11 1
     8    6   15 1
     9    7    9 1
    10    8   10 1
    11    9   16 1
    12   10   17 1
    13   11   12 1
    14   11   13 2
    15   14   18 2
    16   15   18 1
    17   16   18 1
    18   17   18 1
    19    1   19 1
    20    2   20 1
    21    3   21 1
    22    4   22 1
    23    7   23 1
    24    7   24 1
    25    7   25 1
    26    8   26 1
    27    8   27 1
    28    8   28 1
    29    9   29 1
    30    9   30 1
    31   10   31 1
    32   10   32 1
@<TRIPOS>MOLECULE
*****
   32    32     0     0     0
SMALL
NO_CHARGES

@<TRIPOS>ATOM
      1 C1          4.0784    0.6681    3.3314 C.ar      1 <0>         0.0000
      2 C2          3.7176   -1.6536    3.8941 C.ar      1 <0>         0.0000
      3 C3          2.8523    0.6977    2.6671 C.ar      1 <0>         0.0000
      4 C4          2.4914   -1.6240    3.2298 C.ar      1 <0>         0.0000
      5 C5          4.5111   -0.5076    3.9449 C.ar      1 <0>         0.0000
      6 C6          2.0588   -0.4483    2.6163 C.ar      1 <0>         0.0000
      7 C7          0.7078   -0.1913   -2.5818 C.3       1 <0>         0.0000
      8 C8         -3.1165   -1.8102    0.8963 C.3       1 <0>         0.0000
      9 C9          0.2616    0.8710   -1.5999 C.3       1 <0>         0.0000
     10 C10        -1.6441   -1.7700    1.2455 C.3       1 <0>         0.0000
     11 N1          5.7594   -0.5381    4.6210 N.pl3     1 <0>         0.0000
     12 O1          6.4582    0.5035    4.6551 O.3       1 <0>         0.0000
     13 O2          6.1299   -1.6062    5.1657 O.2       1 <0>         0.0000
     14 O3          1.4463   -1.9247   -0.1105 O.2       1 <0>         0.0000
     15 O4          0.8556   -0.4191    1.9646 O.3       1 <0>         0.0000
     16 O5          0.8996    0.6457   -0.3547 O.3       1 <0>         0.0000
     17 O6         -0.9623   -0.9855    0.2818 O.3       1 <0>         0.0000
     18 P1          0.6399   -0.7644    0.4012 P.3       1 <0>         0.0000
     19 H1          4.6871    1.5685    3.3639 H         1 <0>         0.0000
     20 H2          4.0428   -2.5768    4.3674 H         1 <0>         0.0000
     21 H3          2.5204    1.6166    2.1915 H         1 <0>         0.0000
     22 H4          1.8778   -2.5201    3.1933 H         1 <0>         0.0000
     23 H5          1.7902   -0.1534   -2.7325 H         1 <0>         0.0000
     24 H6          0.4356   -1.1888   -2.2216 H         1 <0>         0.0000
     25 H7          0.2116   -0.0558   -3.5486 H         1 <0>         0.0000
     26 H8         -3.5457   -0.8044    0.8983 H         1 <0>         0.0000
     27 H9         -3.2668   -2.2568   -0.0921 H         1 <0>         0.0000
     28 H10        -3.6661   -2.4301    1.6125 H         1 <0>         0.0000
     29 H11        -0.8218    0.8277   -1.4537 H         1 <0>         0.0000
     30 H12         0.5350    1.8669   -1.9610 H         1 <0>         0.0000
     31 H13        -1.2211   -2.7790    1.2418 H         1 <0>         0.0000
     32 H14        -1.4957   -1.3228    2.2329 H         1 <0>         0.0000
@<TRIPOS>BOND
     1    1    3 ar
     2    1    5 ar
     3    2    4 ar
     4    2    5 ar
     5    3    6 ar
     6    4    6 ar
     7    5   11 1
     8    6   15 1
     9    7    9 1
    10    8   10 1
    11    9   16 1
    12   10   17 1
    13   11   12 1
    14   11   13 2
    15   14   18 2
    16   15   18 1
    17   16   18 1
    18   17   18 1
    19    1   19 1
    20    2   20 1
    21    3   21 1
    22    4   22 1
    23    7   23 1
    24    7   24 1
    25    7   25 1
    26    8   26 1
    27    8   27 1
    28    8   28 1
    29    9   29 1
    30    9   30 1
    31   10   31 1
    32   10   32 1
@<TRIPOS>MOLECULE
*****
   32    32     0     0     0
SMALL
NO_CHARGES

@<TRIPOS>ATOM
      1 C1         -0.1057   -3.1305    4.2364 C.ar      1 <0>         0.0000
      2 C2         -1.1634   -1.0796    4.9520 C.ar      1 <0>         0.0000
      3 C3          0.4948   -2.4510    3.1766 C.ar      1 <0>         0.0000
      4 C4         -0.5629   -0.4001    3.8922 C.ar      1 <0>         0.0000
      5 C5         -0.9349   -2.4448    5.1241 C.ar      1 <0>         0.0000
      6 C6          0.2663   -1.0858    3.0045 C.ar      1 <0>         0.0000
      7 C7         -0.1849    0.0697   -2.4016 C.3       1 <0>         0.0000
      8 C8         -3.2760   -0.4393    0.4984 C.3       1 <0>         0.0000
      9 C9          1.0649    0.6361   -1.7621 C.3       1 <0>         0.0000
     10 C10        -1.8528    0.0243    0.7248 C.3       1 <0>         0.0000
     11 N1         -1.5466   -3.1363    6.2030 N.pl3     1 <0>         0.0000
     12 O1         -1.3282   -4.3643    6.3401 O.3       1 <0>         0.0000
     13 O2         -2.2892   -2.5005    6.9897 O.2       1 <0>         0.0000
     14 O3          1.4463   -1.9247   -0.1105 O.2       1 <0>         0.0000
     15 O4          0.8556   -0.4191    1.9646 O.3       1 <0>         0.0000
     16 O5          0.8996    0.6457   -0.3547 O.3       1 <0>         0.0000
     17 O6         -0.9623   -0.9855    0.2818 O.3       1 <0>         0.0000
     18 P1          0.6399   -0.7644    0.4012 P.3       1 <0>         0.0000
     19 H1          0.0811   -4.1945    4.3594 H         1 <0>         0.0000
     20 H2         -1.8079   -0.5329    5.6361 H         1 <0>         0.0000
     21 H3          1.1400   -2.9905    2.4885 H         1 <0>         0.0000
     22 H4         -0.7450    0.6634    3.7630 H         1 <0>         0.0000
     23 H5         -0.3658   -0.9547   -2.0645 H         1 <0>         0.0000
     24 H6         -1.0574    0.6829   -2.1532 H         1 <0>         0.0000
     25 H7         -0.0948    0.0718   -3.4929 H         1 <0>         0.0000
     26 H8         -3.4612   -0.6268   -0.5629 H         1 <0>         0.0000
     27 H9         -3.4768   -1.3576    1.0600 H         1 <0>         0.0000
     28 H10        -3.9880    0.3131    0.8537 H         1 <0>         0.0000
     29 H11         1.2400    1.6607   -2.1034 H         1 <0>         0.0000
     30 H12         1.9355    0.0218   -2.0106 H         1 <0>         0.0000
     31 H13        -1.6742    0.2100    1.7881 H         1 <0>         0.0000
     32 H14        -1.6537    0.9414    0.1624 H         1 <0>         0.0000
@<TRIPOS>BOND
     1    1    3 ar
     2    1    5 ar
     3    2    4 ar
     4    2    5 ar
     5    3    6 ar
     6    4    6 ar
     7    5   11 1
     8    6   15 1
     9    7    9 1
    10    8   10 1
    11    9   16 1
    12   10   17 1
    13   11   12 1
    14   11   13 2
    15   14   18 2
    16   15   18 1
    17   16   18 1
    18   17   18 1
    19    1   19 1
    20    2   20 1
    21    3   21 1
    22    4   22 1
    23    7   23 1
    24    7   24 1
    25    7   25 1
    26    8   26 1
    27    8   27 1
    28    8   28 1
    29    9   29 1
    30    9   30 1
    31   10   31 1
    32   10   32 1
@<TRIPOS>MOLECULE
*****
   32    32     0     0     0
SMALL
NO_CHARGES

@<TRIPOS>ATOM
      1 C1          4.4166    0.3709    2.3278 C.ar      1 <0>         0.0000
      2 C2          3.3342    0.5671    4.4788 C.ar      1 <0>         0.0000
      3 C3          3.1996    0.0129    1.7480 C.ar      1 <0>         0.0000
      4 C4          2.1171    0.2092    3.8990 C.ar      1 <0>         0.0000
      5 C5          4.4840    0.6480    3.6932 C.ar      1 <0>         0.0000
      6 C6          2.0498   -0.0680    2.5336 C.ar      1 <0>         0.0000
      7 C7         -0.1849    0.0697   -2.4016 C.3       1 <0>         0.0000
      8 C8         -1.6472    1.2515    0.7566 C.3       1 <0>         0.0000
      9 C9          1.0649    0.6361   -1.7621 C.3       1 <0>         0.0000
     10 C10        -1.8462   -0.2145    1.0776 C.3       1 <0>         0.0000
     11 N1          5.7228    1.0122    4.2838 N.pl3     1 <0>         0.0000
     12 O1          6.7454    1.0791    3.5597 O.3       1 <0>         0.0000
     13 O2          5.7614    1.2570    5.5140 O.2       1 <0>         0.0000
     14 O3          1.4463   -1.9247   -0.1105 O.2       1 <0>         0.0000
     15 O4          0.8556   -0.4191    1.9646 O.3       1 <0>         0.0000
     16 O5          0.8996    0.6457   -0.3547 O.3       1 <0>         0.0000
     17 O6         -0.9623   -0.9855    0.2818 O.3       1 <0>         0.0000
     18 P1          0.6399   -0.7644    0.4012 P.3       1 <0>         0.0000
     19 H1          5.3052    0.4305    1.7041 H         1 <0>         0.0000
     20 H2          3.3725    0.7799    5.5444 H         1 <0>         0.0000
     21 H3          3.1533   -0.2015    0.6837 H         1 <0>         0.0000
     22 H4          1.2249    0.1475    4.5162 H         1 <0>         0.0000
     23 H5         -0.3658   -0.9547   -2.0645 H         1 <0>         0.0000
     24 H6         -1.0574    0.6829   -2.1532 H         1 <0>         0.0000
     25 H7         -0.0948    0.0718   -3.4929 H         1 <0>         0.0000
     26 H8         -0.6215    1.5626    0.9730 H         1 <0>         0.0000
     27 H9         -1.8610    1.4479   -0.2991 H         1 <0>         0.0000
     28 H10        -2.3351    1.8712    1.3413 H         1 <0>         0.0000
     29 H11         1.2400    1.6607   -2.1034 H         1 <0>         0.0000
     30 H12         1.9355    0.0218   -2.0106 H         1 <0>         0.0000
     31 H13        -2.8740   -0.5192    0.8590 H         1 <0>         0.0000
     32 H14        -1.6314   -0.4092    2.1326 H         1 <0>         0.0000
@<TRIPOS>BOND
     1    1    3 ar
     2    1    5 ar
     3    2    4 ar
     4    2    5 ar
     5    3    6 ar
     6    4    6 ar
     7    5   11 1
     8    6   15 1
     9    7    9 1
    10    8   10 1
    11    9   16 1
    12   10   17 1
    13   11   12 1
    14   11   13 2
    15   14   18 2
    16   15   18 1
    17   16   18 1
    18   17   18 1
    19    1   19 1
    20    2   20 1
    21    3   21 1
    22    4   22 1
    23    7   23 1
    24    7   24 1
    25    7   25 1
    26    8   26 1
    27    8   27 1
    28    8   28 1
    29    9   29 1
    30    9   30 1
    31   10   31 1
    32   10   32 1
@<TRIPOS>MOLECULE
*****
   32    32     0     0     0
SMALL
NO_CHARGES

@<TRIPOS>ATOM
      1 C1          4.2265    0.9658    2.3597 C.ar      1 <0>         0.0000
      2 C2          3.5243   -0.0277    4.4470 C.ar      1 <0>         0.0000
      3 C3          3.0095    0.6077    1.7798 C.ar      1 <0>         0.0000
      4 C4          2.3072   -0.3857    3.8672 C.ar      1 <0>         0.0000
      5 C5          4.4839    0.6480    3.6933 C.ar      1 <0>         0.0000
      6 C6          2.0498   -0.0680    2.5336 C.ar      1 <0>         0.0000
      7 C7          1.5182   -0.2787   -2.4666 C.3       1 <0>         0.0000
      8 C8         -3.2710   -0.6218    0.7680 C.3       1 <0>         0.0000
      9 C9          0.6411    0.7228   -1.7459 C.3       1 <0>         0.0000
     10 C10        -1.8462   -0.2145    1.0776 C.3       1 <0>         0.0000
     11 N1          5.7229    1.0121    4.2838 N.pl3     1 <0>         0.0000
     12 O1          6.5728    1.6195    3.5885 O.3       1 <0>         0.0000
     13 O2          5.9342    0.7163    5.4849 O.2       1 <0>         0.0000
     14 O3          1.4463   -1.9247   -0.1105 O.2       1 <0>         0.0000
     15 O4          0.8556   -0.4191    1.9646 O.3       1 <0>         0.0000
     16 O5          0.8996    0.6457   -0.3547 O.3       1 <0>         0.0000
     17 O6         -0.9623   -0.9855    0.2818 O.3       1 <0>         0.0000
     18 P1          0.6399   -0.7644    0.4012 P.3       1 <0>         0.0000
     19 H1          4.9657    1.4925    1.7612 H         1 <0>         0.0000
     20 H2          3.7120   -0.2821    5.4873 H         1 <0>         0.0000
     21 H3          2.8146    0.8583    0.7406 H         1 <0>         0.0000
     22 H4          1.5637   -0.9123    4.4593 H         1 <0>         0.0000
     23 H5          2.5769   -0.0642   -2.2959 H         1 <0>         0.0000
     24 H6          1.3039   -1.2964   -2.1240 H         1 <0>         0.0000
     25 H7          1.3228   -0.2578   -3.5439 H         1 <0>         0.0000
     26 H8         -3.5068   -0.4464   -0.2853 H         1 <0>         0.0000
     27 H9         -3.4271   -1.6818    0.9935 H         1 <0>         0.0000
     28 H10        -3.9766   -0.0575    1.3868 H         1 <0>         0.0000
     29 H11        -0.4162    0.5026   -1.9207 H         1 <0>         0.0000
     30 H12         0.8571    1.7391   -2.0888 H         1 <0>         0.0000
     31 H13        -1.6168   -0.3925    2.1325 H         1 <0>         0.0000
     32 H14        -1.6917    0.8446    0.8510 H         1 <0>         0.0000
@<TRIPOS>BOND
     1    1    3 ar
     2    1    5 ar
     3    2    4 ar
     4    2    5 ar
     5    3    6 ar
     6    4    6 ar
     7    5   11 1
     8    6   15 1
     9    7    9 1
    10    8   10 1
    11    9   16 1
    12   10   17 1
    13   11   12 1
    14   11   13 2
    15   14   18 2
    16   15   18 1
    17   16   18 1
    18   17   18 1
    19    1   19 1
    20    2   20 1
    21    3   21 1
    22    4   22 1
    23    7   23 1
    24    7   24 1
    25    7   25 1
    26    8   26 1
    27    8   27 1
    28    8   28 1
    29    9   29 1
    30    9   30 1
    31   10   31 1
    32   10   32 1
@<TRIPOS>MOLECULE
*****
   32    32     0     0     0
SMALL
NO_CHARGES

@<TRIPOS>ATOM
      1 C1          0.8737    3.1699    2.7097 C.ar      1 <0>         0.0000
      2 C2         -0.6760    2.0569    4.1919 C.ar      1 <0>         0.0000
      3 C3          1.1787    1.9477    2.1108 C.ar      1 <0>         0.0000
      4 C4         -0.3710    0.8346    3.5929 C.ar      1 <0>         0.0000
      5 C5         -0.0536    3.2245    3.7503 C.ar      1 <0>         0.0000
      6 C6          0.5564    0.7801    2.5524 C.ar      1 <0>         0.0000
      7 C7          0.9532    2.1233   -2.2286 C.3       1 <0>         0.0000
      8 C8         -1.2055   -2.6228    2.0018 C.3       1 <0>         0.0000
      9 C9          0.6411    0.7228   -1.7459 C.3       1 <0>         0.0000
     10 C10        -1.5270   -2.2533    0.5694 C.3       1 <0>         0.0000
     11 N1         -0.3642    4.4686    4.3603 N.pl3     1 <0>         0.0000
     12 O1          0.2068    5.5072    3.9484 O.3       1 <0>         0.0000
     13 O2         -1.2010    4.4953    5.2951 O.2       1 <0>         0.0000
     14 O3          1.4463   -1.9247   -0.1105 O.2       1 <0>         0.0000
     15 O4          0.8556   -0.4191    1.9646 O.3       1 <0>         0.0000
     16 O5          0.8996    0.6457   -0.3547 O.3       1 <0>         0.0000
     17 O6         -0.9623   -0.9855    0.2818 O.3       1 <0>         0.0000
     18 P1          0.6399   -0.7644    0.4012 P.3       1 <0>         0.0000
     19 H1          1.3657    4.0725    2.3557 H         1 <0>         0.0000
     20 H2         -1.4003    2.0850    5.0023 H         1 <0>         0.0000
     21 H3          1.9017    1.9115    1.3004 H         1 <0>         0.0000
     22 H4         -0.8588   -0.0716    3.9415 H         1 <0>         0.0000
     23 H5          0.3289    2.8607   -1.7163 H         1 <0>         0.0000
     24 H6          2.0058    2.3671   -2.0514 H         1 <0>         0.0000
     25 H7          0.7845    2.2061   -3.3074 H         1 <0>         0.0000
     26 H8         -0.1245   -2.6789    2.1571 H         1 <0>         0.0000
     27 H9         -1.6244   -1.8850    2.6940 H         1 <0>         0.0000
     28 H10        -1.6501   -3.5897    2.2599 H         1 <0>         0.0000
     29 H11         1.2688   -0.0097   -2.2621 H         1 <0>         0.0000
     30 H12        -0.4111    0.4812   -1.9229 H         1 <0>         0.0000
     31 H13        -2.6095   -2.1989    0.4208 H         1 <0>         0.0000
     32 H14        -1.1071   -2.9910   -0.1209 H         1 <0>         0.0000
@<TRIPOS>BOND
     1    1    3 ar
     2    1    5 ar
     3    2    4 ar
     4    2    5 ar
     5    3    6 ar
     6    4    6 ar
     7    5   11 1
     8    6   15 1
     9    7    9 1
    10    8   10 1
    11    9   16 1
    12   10   17 1
    13   11   12 1
    14   11   13 2
    15   14   18 2
    16   15   18 1
    17   16   18 1
    18   17   18 1
    19    1   19 1
    20    2   20 1
    21    3   21 1
    22    4   22 1
    23    7   23 1
    24    7   24 1
    25    7   25 1
    26    8   26 1
    27    8   27 1
    28    8   28 1
    29    9   29 1
    30    9   30 1
    31   10   31 1
    32   10   32 1
@<TRIPOS>MOLECULE
*****
   32    32     0     0     0
SMALL
NO_CHARGES

@<TRIPOS>ATOM
      1 C1          1.3557   -3.0016    4.5176 C.ar      1 <0>         0.0000
      2 C2         -0.9127   -2.1805    4.6493 C.ar      1 <0>         0.0000
      3 C3          1.6112   -2.1263    3.4621 C.ar      1 <0>         0.0000
      4 C4         -0.6572   -1.3052    3.5938 C.ar      1 <0>         0.0000
      5 C5          0.0937   -3.0288    5.1112 C.ar      1 <0>         0.0000
      6 C6          0.6048   -1.2781    3.0002 C.ar      1 <0>         0.0000
      7 C7          0.8669    3.0215   -0.5828 C.3       1 <0>         0.0000
      8 C8         -0.9608   -2.4462   -1.6064 C.3       1 <0>         0.0000
      9 C9          0.5335    1.8437    0.3079 C.3       1 <0>         0.0000
     10 C10        -1.5563   -1.1996   -0.9873 C.3       1 <0>         0.0000
     11 N1         -0.1669   -3.9199    6.1856 N.pl3     1 <0>         0.0000
     12 O1          0.7520   -4.6747    6.5860 O.3       1 <0>         0.0000
     13 O2         -1.3091   -3.9285    6.7051 O.2       1 <0>         0.0000
     14 O3          1.4463   -1.9247   -0.1105 O.2       1 <0>         0.0000
     15 O4          0.8556   -0.4191    1.9646 O.3       1 <0>         0.0000
     16 O5          0.8996    0.6457   -0.3547 O.3       1 <0>         0.0000
     17 O6         -0.9623   -0.9855    0.2818 O.3       1 <0>         0.0000
     18 P1          0.6399   -0.7644    0.4012 P.3       1 <0>         0.0000
     19 H1          2.1490   -3.6572    4.8682 H         1 <0>         0.0000
     20 H2         -1.9010   -2.1916    5.1025 H         1 <0>         0.0000
     21 H3          2.5963   -2.1094    3.0039 H         1 <0>         0.0000
     22 H4         -1.4453   -0.6471    3.2382 H         1 <0>         0.0000
     23 H5          1.9382    3.0559   -0.7994 H         1 <0>         0.0000
     24 H6          0.3170    2.9589   -1.5276 H         1 <0>         0.0000
     25 H7          0.5727    3.9619   -0.1050 H         1 <0>         0.0000
     26 H8          0.1190   -2.3376   -1.7404 H         1 <0>         0.0000
     27 H9         -1.1527   -3.3201   -0.9752 H         1 <0>         0.0000
     28 H10        -1.4189   -2.6500   -2.5799 H         1 <0>         0.0000
     29 H11        -0.5393    1.8151    0.5207 H         1 <0>         0.0000
     30 H12         1.0843    1.9074    1.2510 H         1 <0>         0.0000
     31 H13        -2.6363   -1.3147   -0.8560 H         1 <0>         0.0000
     32 H14        -1.3629   -0.3273   -1.6187 H         1 <0>         0.0000
@<TRIPOS>BOND
     1    1    3 ar
     2    1    5 ar
     3    2    4 ar
     4    2    5 ar
     5    3    6 ar
     6    4    6 ar
     7    5   11 1
     8    6   15 1
     9    7    9 1
    10    8   10 1
    11    9   16 1
    12   10   17 1
    13   11   12 1
    14   11   13 2
    15   14   18 2
    16   15   18 1
    17   16   18 1
    18   17   18 1
    19    1   19 1
    20    2   20 1
    21    3   21 1
    22    4   22 1
    23    7   23 1
    24    7   24 1
    25    7   25 1
    26    8   26 1
    27    8   27 1
    28    8   28 1
    29    9   29 1
    30    9   30 1
    31   10   31 1
    32   10   32 1
@<TRIPOS>MOLECULE
*****
   32    32     0     0     0
SMALL
NO_CHARGES

@<TRIPOS>ATOM
      1 C1          4.4617   -0.1977    2.5841 C.ar      1 <0>         0.0000
      2 C2          3.2892    1.1357    4.2224 C.ar      1 <0>         0.0000
      3 C3          3.2447   -0.5557    2.0043 C.ar      1 <0>         0.0000
      4 C4          2.0720    0.7777    3.6426 C.ar      1 <0>         0.0000
      5 C5          4.4840    0.6479    3.6932 C.ar      1 <0>         0.0000
      6 C6          2.0498   -0.0680    2.5336 C.ar      1 <0>         0.0000
      7 C7         -0.2657    2.0208    1.2101 C.3       1 <0>         0.0000
      8 C8         -3.0680   -2.0405    0.6713 C.3       1 <0>         0.0000
      9 C9         -0.0853    1.6592   -0.2488 C.3       1 <0>         0.0000
     10 C10        -1.5805   -2.0713    0.9510 C.3       1 <0>         0.0000
     11 N1          5.7228    1.0123    4.2838 N.pl3     1 <0>         0.0000
     12 O1          6.7863    0.5627    3.7925 O.3       1 <0>         0.0000
     13 O2          5.7203    1.7738    5.2812 O.2       1 <0>         0.0000
     14 O3          1.4463   -1.9247   -0.1105 O.2       1 <0>         0.0000
     15 O4          0.8556   -0.4191    1.9646 O.3       1 <0>         0.0000
     16 O5          0.8996    0.6457   -0.3547 O.3       1 <0>         0.0000
     17 O6         -0.9623   -0.9855    0.2818 O.3       1 <0>         0.0000
     18 P1          0.6399   -0.7644    0.4012 P.3       1 <0>         0.0000
     19 H1          5.3858   -0.5846    2.1615 H         1 <0>         0.0000
     20 H2          3.2919    1.7951    5.0869 H         1 <0>         0.0000
     21 H3          3.2337   -1.2145    1.1403 H         1 <0>         0.0000
     22 H4          1.1446    1.1606    4.0597 H         1 <0>         0.0000
     23 H5         -0.5940    1.1534    1.7894 H         1 <0>         0.0000
     24 H6          0.6721    2.3948    1.6339 H         1 <0>         0.0000
     25 H7         -1.0060    2.8202    1.3207 H         1 <0>         0.0000
     26 H8         -3.5136   -1.1092    1.0317 H         1 <0>         0.0000
     27 H9         -3.2608   -2.1323   -0.4027 H         1 <0>         0.0000
     28 H10        -3.5696   -2.8836    1.1579 H         1 <0>         0.0000
     29 H11         0.2431    2.5310   -0.8225 H         1 <0>         0.0000
     30 H12        -1.0229    1.2850   -0.6705 H         1 <0>         0.0000
     31 H13        -1.1411   -3.0052    0.5880 H         1 <0>         0.0000
     32 H14        -1.3896   -1.9787    2.0243 H         1 <0>         0.0000
@<TRIPOS>BOND
     1    1    3 ar
     2    1    5 ar
     3    2    4 ar
     4    2    5 ar
     5    3    6 ar
     6    4    6 ar
     7    5   11 1
     8    6   15 1
     9    7    9 1
    10    8   10 1
    11    9   16 1
    12   10   17 1
    13   11   12 1
    14   11   13 2
    15   14   18 2
    16   15   18 1
    17   16   18 1
    18   17   18 1
    19    1   19 1
    20    2   20 1
    21    3   21 1
    22    4   22 1
    23    7   23 1
    24    7   24 1
    25    7   25 1
    26    8   26 1
    27    8   27 1
    28    8   28 1
    29    9   29 1
    30    9   30 1
    31   10   31 1
    32   10   32 1
@<TRIPOS>MOLECULE
*****
   32    32     0     0     0
SMALL
NO_CHARGES

@<TRIPOS>ATOM
      1 C1          0.4838   -3.5292    3.8688 C.ar      1 <0>         0.0000
      2 C2         -0.0408   -1.6531    5.2979 C.ar      1 <0>         0.0000
      3 C3          0.7393   -2.6538    2.8134 C.ar      1 <0>         0.0000
      4 C4          0.2148   -0.7777    4.2425 C.ar      1 <0>         0.0000
      5 C5          0.0937   -3.0289    5.1111 C.ar      1 <0>         0.0000
      6 C6          0.6048   -1.2781    3.0002 C.ar      1 <0>         0.0000
      7 C7          1.2927    2.0538   -2.2415 C.3       1 <0>         0.0000
      8 C8         -1.6472    1.2515    0.7566 C.3       1 <0>         0.0000
      9 C9          1.0649    0.6361   -1.7621 C.3       1 <0>         0.0000
     10 C10        -1.8462   -0.2145    1.0776 C.3       1 <0>         0.0000
     11 N1         -0.1667   -3.9198    6.1857 N.pl3     1 <0>         0.0000
     12 O1         -0.0400   -5.1538    5.9969 O.3       1 <0>         0.0000
     13 O2         -0.5168   -3.4487    7.2948 O.2       1 <0>         0.0000
     14 O3          1.4463   -1.9247   -0.1105 O.2       1 <0>         0.0000
     15 O4          0.8556   -0.4191    1.9646 O.3       1 <0>         0.0000
     16 O5          0.8996    0.6457   -0.3547 O.3       1 <0>         0.0000
     17 O6         -0.9623   -0.9855    0.2818 O.3       1 <0>         0.0000
     18 P1          0.6399   -0.7644    0.4012 P.3       1 <0>         0.0000
     19 H1          0.5927   -4.5992    3.7099 H         1 <0>         0.0000
     20 H2         -0.3446   -1.2496    6.2607 H         1 <0>         0.0000
     21 H3          1.0431   -3.0495    1.8481 H         1 <0>         0.0000
     22 H4          0.1079    0.2930    4.3940 H         1 <0>         0.0000
     23 H5          0.4390    2.6911   -1.9948 H         1 <0>         0.0000
     24 H6          2.1932    2.4762   -1.7836 H         1 <0>         0.0000
     25 H7          1.4473    2.0744   -3.3254 H         1 <0>         0.0000
     26 H8         -0.6215    1.5626    0.9730 H         1 <0>         0.0000
     27 H9         -1.8610    1.4479   -0.2991 H         1 <0>         0.0000
     28 H10        -2.3351    1.8712    1.3413 H         1 <0>         0.0000
     29 H11         1.9223    0.0041   -2.0120 H         1 <0>         0.0000
     30 H12         0.1644    0.2159   -2.2200 H         1 <0>         0.0000
     31 H13        -2.8740   -0.5192    0.8590 H         1 <0>         0.0000
     32 H14        -1.6314   -0.4092    2.1326 H         1 <0>         0.0000
@<TRIPOS>BOND
     1    1    3 ar
     2    1    5 ar
     3    2    4 ar
     4    2    5 ar
     5    3    6 ar
     6    4    6 ar
     7    5   11 1
     8    6   15 1
     9    7    9 1
    10    8   10 1
    11    9   16 1
    12   10   17 1
    13   11   12 1
    14   11   13 2
    15   14   18 2
    16   15   18 1
    17   16   18 1
    18   17   18 1
    19    1   19 1
    20    2   20 1
    21    3   21 1
    22    4   22 1
    23    7   23 1
    24    7   24 1
    25    7   25 1
    26    8   26 1
    27    8   27 1
    28    8   28 1
    29    9   29 1
    30    9   30 1
    31   10   31 1
    32   10   32 1
@<TRIPOS>MOLECULE
*****
   32    32     0     0     0
SMALL
NO_CHARGES

@<TRIPOS>ATOM
      1 C1          4.0151   -1.6648    3.3439 C.ar      1 <0>         0.0000
      2 C2          3.7811    0.6790    3.8811 C.ar      1 <0>         0.0000
      3 C3          2.7889   -1.6351    2.6798 C.ar      1 <0>         0.0000
      4 C4          2.5548    0.7088    3.2170 C.ar      1 <0>         0.0000
      5 C5          4.5112   -0.5077    3.9447 C.ar      1 <0>         0.0000
      6 C6          2.0588   -0.4483    2.6163 C.ar      1 <0>         0.0000
      7 C7          2.2245    2.3317   -1.4032 C.3       1 <0>         0.0000
      8 C8         -0.9608   -2.4462   -1.6064 C.3       1 <0>         0.0000
      9 C9          2.2277    0.9829   -0.7159 C.3       1 <0>         0.0000
     10 C10        -1.5563   -1.1996   -0.9873 C.3       1 <0>         0.0000
     11 N1          5.7594   -0.5377    4.6210 N.pl3     1 <0>         0.0000
     12 O1          6.4005   -1.6154    4.6668 O.3       1 <0>         0.0000
     13 O2          6.1871    0.5143    5.1549 O.2       1 <0>         0.0000
     14 O3          1.4463   -1.9247   -0.1105 O.2       1 <0>         0.0000
     15 O4          0.8556   -0.4191    1.9646 O.3       1 <0>         0.0000
     16 O5          0.8996    0.6457   -0.3547 O.3       1 <0>         0.0000
     17 O6         -0.9623   -0.9855    0.2818 O.3       1 <0>         0.0000
     18 P1          0.6399   -0.7644    0.4012 P.3       1 <0>         0.0000
     19 H1          4.5743   -2.5963    3.3858 H         1 <0>         0.0000
     20 H2          4.1556    1.5881    4.3454 H         1 <0>         0.0000
     21 H3          2.4078   -2.5395    2.2135 H         1 <0>         0.0000
     22 H4          1.9905    1.6362    3.1712 H         1 <0>         0.0000
     23 H5          1.6123    2.3067   -2.3089 H         1 <0>         0.0000
     24 H6          1.8340    3.1051   -0.7337 H         1 <0>         0.0000
     25 H7          3.2431    2.6294   -1.6734 H         1 <0>         0.0000
     26 H8          0.1190   -2.3376   -1.7404 H         1 <0>         0.0000
     27 H9         -1.1527   -3.3201   -0.9752 H         1 <0>         0.0000
     28 H10        -1.4189   -2.6500   -2.5799 H         1 <0>         0.0000
     29 H11         2.8418    1.0147    0.1891 H         1 <0>         0.0000
     30 H12         2.6174    0.2112   -1.3864 H         1 <0>         0.0000
     31 H13        -2.6363   -1.3147   -0.8560 H         1 <0>         0.0000
     32 H14        -1.3629   -0.3273   -1.6187 H         1 <0>         0.0000
@<TRIPOS>BOND
     1    1    3 ar
     2    1    5 ar
     3    2    4 ar
     4    2    5 ar
     5    3    6 ar
     6    4    6 ar
     7    5   11 1
     8    6   15 1
     9    7    9 1
    10    8   10 1
    11    9   16 1
    12   10   17 1
    13   11   12 1
    14   11   13 2
    15   14   18 2
    16   15   18 1
    17   16   18 1
    18   17   18 1
    19    1   19 1
    20    2   20 1
    21    3   21 1
    22    4   22 1
    23    7   23 1
    24    7   24 1
    25    7   25 1
    26    8   26 1
    27    8   27 1
    28    8   28 1
    29    9   29 1
    30    9   30 1
    31   10   31 1
    32   10   32 1
@<TRIPOS>MOLECULE
*****
   32    32     0     0     0
SMALL
NO_CHARGES

@<TRIPOS>ATOM
      1 C1         -0.7895    2.7840    2.6503 C.ar      1 <0>         0.0000
      2 C2          0.9871    2.4427    4.2516 C.ar      1 <0>         0.0000
      3 C3         -0.4845    1.5618    2.0512 C.ar      1 <0>         0.0000
      4 C4          1.2922    1.2205    3.6525 C.ar      1 <0>         0.0000
      5 C5         -0.0537    3.2244    3.7504 C.ar      1 <0>         0.0000
      6 C6          0.5564    0.7801    2.5524 C.ar      1 <0>         0.0000
      7 C7          0.9532    2.1233   -2.2286 C.3       1 <0>         0.0000
      8 C8         -0.9865   -3.3672    0.4415 C.3       1 <0>         0.0000
      9 C9          0.6411    0.7228   -1.7459 C.3       1 <0>         0.0000
     10 C10        -1.5805   -2.0713    0.9510 C.3       1 <0>         0.0000
     11 N1         -0.3639    4.4686    4.3604 N.pl3     1 <0>         0.0000
     12 O1         -1.3040    5.1568    3.8942 O.3       1 <0>         0.0000
     13 O2          0.3108    4.8463    5.3487 O.2       1 <0>         0.0000
     14 O3          1.4463   -1.9247   -0.1105 O.2       1 <0>         0.0000
     15 O4          0.8556   -0.4191    1.9646 O.3       1 <0>         0.0000
     16 O5          0.8996    0.6457   -0.3547 O.3       1 <0>         0.0000
     17 O6         -0.9623   -0.9855    0.2818 O.3       1 <0>         0.0000
     18 P1          0.6399   -0.7644    0.4012 P.3       1 <0>         0.0000
     19 H1         -1.6035    3.3834    2.2500 H         1 <0>         0.0000
     20 H2          1.5691    2.7741    5.1081 H         1 <0>         0.0000
     21 H3         -1.0614    1.2239    1.1947 H         1 <0>         0.0000
     22 H4          2.1044    0.6161    4.0472 H         1 <0>         0.0000
     23 H5          0.3289    2.8607   -1.7163 H         1 <0>         0.0000
     24 H6          2.0058    2.3671   -2.0514 H         1 <0>         0.0000
     25 H7          0.7845    2.2061   -3.3074 H         1 <0>         0.0000
     26 H8         -1.1553   -3.4779   -0.6332 H         1 <0>         0.0000
     27 H9          0.0907   -3.4006    0.6355 H         1 <0>         0.0000
     28 H10        -1.4297   -4.2245    0.9589 H         1 <0>         0.0000
     29 H11         1.2688   -0.0097   -2.2621 H         1 <0>         0.0000
     30 H12        -0.4111    0.4812   -1.9229 H         1 <0>         0.0000
     31 H13        -1.4082   -1.9667    2.0263 H         1 <0>         0.0000
     32 H14        -2.6565   -2.0392    0.7556 H         1 <0>         0.0000
@<TRIPOS>BOND
     1    1    3 ar
     2    1    5 ar
     3    2    4 ar
     4    2    5 ar
     5    3    6 ar
     6    4    6 ar
     7    5   11 1
     8    6   15 1
     9    7    9 1
    10    8   10 1
    11    9   16 1
    12   10   17 1
    13   11   12 1
    14   11   13 2
    15   14   18 2
    16   15   18 1
    17   16   18 1
    18   17   18 1
    19    1   19 1
    20    2   20 1
    21    3   21 1
    22    4   22 1
    23    7   23 1
    24    7   24 1
    25    7   25 1
    26    8   26 1
    27    8   27 1
    28    8   28 1
    29    9   29 1
    30    9   30 1
    31   10   31 1
    32   10   32 1
@<TRIPOS>MOLECULE
*****
   32    32     0     0     0
SMALL
NO_CHARGES

@<TRIPOS>ATOM
      1 C1          1.0698   -3.6525    3.6782 C.ar      1 <0>         0.0000
      2 C2          1.3022   -1.8757    5.2987 C.ar      1 <0>         0.0000
      3 C3          0.9366   -2.7074    2.6610 C.ar      1 <0>         0.0000
      4 C4          1.1691   -0.9306    4.2815 C.ar      1 <0>         0.0000
      5 C5          1.2526   -3.2367    4.9970 C.ar      1 <0>         0.0000
      6 C6          0.9862   -1.3465    2.9627 C.ar      1 <0>         0.0000
      7 C7          0.3711    2.8736   -1.0289 C.3       1 <0>         0.0000
      8 C8         -3.0680   -2.0405    0.6713 C.3       1 <0>         0.0000
      9 C9         -0.0853    1.6592   -0.2488 C.3       1 <0>         0.0000
     10 C10        -1.5805   -2.0713    0.9510 C.3       1 <0>         0.0000
     11 N1          1.3880   -4.1986    6.0327 N.pl3     1 <0>         0.0000
     12 O1          1.3404   -5.4179    5.7403 O.3       1 <0>         0.0000
     13 O2          1.5512   -3.8030    7.2124 O.2       1 <0>         0.0000
     14 O3          1.4463   -1.9247   -0.1105 O.2       1 <0>         0.0000
     15 O4          0.8556   -0.4191    1.9646 O.3       1 <0>         0.0000
     16 O5          0.8996    0.6457   -0.3547 O.3       1 <0>         0.0000
     17 O6         -0.9623   -0.9855    0.2818 O.3       1 <0>         0.0000
     18 P1          0.6399   -0.7644    0.4012 P.3       1 <0>         0.0000
     19 H1          1.0296   -4.7101    3.4293 H         1 <0>         0.0000
     20 H2          1.4437   -1.5377    6.3224 H         1 <0>         0.0000
     21 H3          0.7948   -3.0374    1.6355 H         1 <0>         0.0000
     22 H4          1.2082    0.1282    4.5228 H         1 <0>         0.0000
     23 H5          1.3139    3.2605   -0.6323 H         1 <0>         0.0000
     24 H6          0.5081    2.6242   -2.0862 H         1 <0>         0.0000
     25 H7         -0.3828    3.6666   -0.9841 H         1 <0>         0.0000
     26 H8         -3.5136   -1.1092    1.0317 H         1 <0>         0.0000
     27 H9         -3.2608   -2.1323   -0.4027 H         1 <0>         0.0000
     28 H10        -3.5696   -2.8836    1.1579 H         1 <0>         0.0000
     29 H11        -1.0286    1.2773   -0.6505 H         1 <0>         0.0000
     30 H12        -0.2209    1.9099    0.8075 H         1 <0>         0.0000
     31 H13        -1.1411   -3.0052    0.5880 H         1 <0>         0.0000
     32 H14        -1.3896   -1.9787    2.0243 H         1 <0>         0.0000
@<TRIPOS>BOND
     1    1    3 ar
     2    1    5 ar
     3    2    4 ar
     4    2    5 ar
     5    3    6 ar
     6    4    6 ar
     7    5   11 1
     8    6   15 1
     9    7    9 1
    10    8   10 1
    11    9   16 1
    12   10   17 1
    13   11   12 1
    14   11   13 2
    15   14   18 2
    16   15   18 1
    17   16   18 1
    18   17   18 1
    19    1   19 1
    20    2   20 1
    21    3   21 1
    22    4   22 1
    23    7   23 1
    24    7   24 1
    25    7   25 1
    26    8   26 1
    27    8   27 1
    28    8   28 1
    29    9   29 1
    30    9   30 1
    31   10   31 1
    32   10   32 1
@<TRIPOS>MOLECULE
*****
   32    32     0     0     0
SMALL
NO_CHARGES

@<TRIPOS>ATOM
      1 C1          3.6401    1.6324    3.1790 C.ar      1 <0>         0.0000
      2 C2          4.1106   -0.6944    3.6280 C.ar      1 <0>         0.0000
      3 C3          2.4231    1.2744    2.5990 C.ar      1 <0>         0.0000
      4 C4          2.8935   -1.0524    3.0481 C.ar      1 <0>         0.0000
      5 C5          4.4839    0.6479    3.6934 C.ar      1 <0>         0.0000
      6 C6          2.0498   -0.0680    2.5336 C.ar      1 <0>         0.0000
      7 C7          1.5182   -0.2787   -2.4666 C.3       1 <0>         0.0000
      8 C8         -3.2710   -0.6218    0.7680 C.3       1 <0>         0.0000
      9 C9          0.6411    0.7228   -1.7459 C.3       1 <0>         0.0000
     10 C10        -1.8462   -0.2145    1.0776 C.3       1 <0>         0.0000
     11 N1          5.7230    1.0120    4.2837 N.pl3     1 <0>         0.0000
     12 O1          6.0402    2.2251    4.3326 O.3       1 <0>         0.0000
     13 O2          6.4672    0.1106    4.7400 O.2       1 <0>         0.0000
     14 O3          1.4463   -1.9247   -0.1105 O.2       1 <0>         0.0000
     15 O4          0.8556   -0.4191    1.9646 O.3       1 <0>         0.0000
     16 O5          0.8996    0.6457   -0.3547 O.3       1 <0>         0.0000
     17 O6         -0.9623   -0.9855    0.2818 O.3       1 <0>         0.0000
     18 P1          0.6399   -0.7644    0.4012 P.3       1 <0>         0.0000
     19 H1          3.9189    2.6823    3.2239 H         1 <0>         0.0000
     20 H2          4.7588   -1.4720    4.0246 H         1 <0>         0.0000
     21 H3          1.7699    2.0458    2.2002 H         1 <0>         0.0000
     22 H4          2.6084   -2.0998    2.9997 H         1 <0>         0.0000
     23 H5          2.5769   -0.0642   -2.2959 H         1 <0>         0.0000
     24 H6          1.3039   -1.2964   -2.1240 H         1 <0>         0.0000
     25 H7          1.3228   -0.2578   -3.5439 H         1 <0>         0.0000
     26 H8         -3.5068   -0.4464   -0.2853 H         1 <0>         0.0000
     27 H9         -3.4271   -1.6818    0.9935 H         1 <0>         0.0000
     28 H10        -3.9766   -0.0575    1.3868 H         1 <0>         0.0000
     29 H11        -0.4162    0.5026   -1.9207 H         1 <0>         0.0000
     30 H12         0.8571    1.7391   -2.0888 H         1 <0>         0.0000
     31 H13        -1.6168   -0.3925    2.1325 H         1 <0>         0.0000
     32 H14        -1.6917    0.8446    0.8510 H         1 <0>         0.0000
@<TRIPOS>BOND
     1    1    3 ar
     2    1    5 ar
     3    2    4 ar
     4    2    5 ar
     5    3    6 ar
     6    4    6 ar
     7    5   11 1
     8    6   15 1
     9    7    9 1
    10    8   10 1
    11    9   16 1
    12   10   17 1
    13   11   12 1
    14   11   13 2
    15   14   18 2
    16   15   18 1
    17   16   18 1
    18   17   18 1
    19    1   19 1
    20    2   20 1
    21    3   21 1
    22    4   22 1
    23    7   23 1
    24    7   24 1
    25    7   25 1
    26    8   26 1
    27    8   27 1
    28    8   28 1
    29    9   29 1
    30    9   30 1
    31   10   31 1
    32   10   32 1
@<TRIPOS>MOLECULE
*****
   32    32     0     0     0
SMALL
NO_CHARGES

@<TRIPOS>ATOM
      1 C1         -1.2141    2.3520    3.1784 C.ar      1 <0>         0.0000
      2 C2         -1.4744    0.4577    4.6552 C.ar      1 <0>         0.0000
      3 C3         -0.3275    1.6169    2.3917 C.ar      1 <0>         0.0000
      4 C4         -0.5877   -0.2775    3.8684 C.ar      1 <0>         0.0000
      5 C5         -1.7876    1.7725    4.3102 C.ar      1 <0>         0.0000
      6 C6         -0.0143    0.3022    2.7366 C.ar      1 <0>         0.0000
      7 C7          2.2086    2.4977   -1.0990 C.3       1 <0>         0.0000
      8 C8         -0.9608   -2.4462   -1.6064 C.3       1 <0>         0.0000
      9 C9          2.2078    1.1900   -0.3364 C.3       1 <0>         0.0000
     10 C10        -1.5563   -1.1996   -0.9873 C.3       1 <0>         0.0000
     11 N1         -2.6901    2.5206    5.1115 N.pl3     1 <0>         0.0000
     12 O1         -2.9585    3.7018    4.7839 O.3       1 <0>         0.0000
     13 O2         -3.1943    1.9803    6.1256 O.2       1 <0>         0.0000
     14 O3          1.4463   -1.9247   -0.1105 O.2       1 <0>         0.0000
     15 O4          0.8556   -0.4191    1.9646 O.3       1 <0>         0.0000
     16 O5          0.8996    0.6457   -0.3547 O.3       1 <0>         0.0000
     17 O6         -0.9623   -0.9855    0.2818 O.3       1 <0>         0.0000
     18 P1          0.6399   -0.7644    0.4012 P.3       1 <0>         0.0000
     19 H1         -1.4500    3.3757    2.8981 H         1 <0>         0.0000
     20 H2         -1.9137   -0.0062    5.5349 H         1 <0>         0.0000
     21 H3          0.1158    2.0737    1.5110 H         1 <0>         0.0000
     22 H4         -0.3474   -1.3011    4.1425 H         1 <0>         0.0000
     23 H5          1.9097    2.3428   -2.1395 H         1 <0>         0.0000
     24 H6          1.5219    3.2145   -0.6369 H         1 <0>         0.0000
     25 H7          3.2040    2.9539   -1.0817 H         1 <0>         0.0000
     26 H8          0.1190   -2.3376   -1.7404 H         1 <0>         0.0000
     27 H9         -1.1527   -3.3201   -0.9752 H         1 <0>         0.0000
     28 H10        -1.4189   -2.6500   -2.5799 H         1 <0>         0.0000
     29 H11         2.5076    1.3519    0.7033 H         1 <0>         0.0000
     30 H12         2.8938    0.4747   -0.7999 H         1 <0>         0.0000
     31 H13        -2.6363   -1.3147   -0.8560 H         1 <0>         0.0000
     32 H14        -1.3629   -0.3273   -1.6187 H         1 <0>         0.0000
@<TRIPOS>BOND
     1    1    3 ar
     2    1    5 ar
     3    2    4 ar
     4    2    5 ar
     5    3    6 ar
     6    4    6 ar
     7    5   11 1
     8    6   15 1
     9    7    9 1
    10    8   10 1
    11    9   16 1
    12   10   17 1
    13   11   12 1
    14   11   13 2
    15   14   18 2
    16   15   18 1
    17   16   18 1
    18   17   18 1
    19    1   19 1
    20    2   20 1
    21    3   21 1
    22    4   22 1
    23    7   23 1
    24    7   24 1
    25    7   25 1
    26    8   26 1
    27    8   27 1
    28    8   28 1
    29    9   29 1
    30    9   30 1
    31   10   31 1
    32   10   32 1
@<TRIPOS>MOLECULE
*****
   32    32     0     0     0
SMALL
NO_CHARGES

@<TRIPOS>ATOM
      1 C1         -0.9369   -2.6587    4.2467 C.ar      1 <0>         0.0000
      2 C2          1.3795   -2.5237    4.9198 C.ar      1 <0>         0.0000
      3 C3         -0.6812   -1.7832    3.1914 C.ar      1 <0>         0.0000
      4 C4          1.6352   -1.6483    3.8644 C.ar      1 <0>         0.0000
      5 C5          0.0935   -3.0289    5.1110 C.ar      1 <0>         0.0000
      6 C6          0.6048   -1.2781    3.0002 C.ar      1 <0>         0.0000
      7 C7          2.2245    2.3317   -1.4032 C.3       1 <0>         0.0000
      8 C8         -0.9608   -2.4462   -1.6064 C.3       1 <0>         0.0000
      9 C9          2.2277    0.9829   -0.7159 C.3       1 <0>         0.0000
     10 C10        -1.5563   -1.1996   -0.9873 C.3       1 <0>         0.0000
     11 N1         -0.1665   -3.9199    6.1856 N.pl3     1 <0>         0.0000
     12 O1         -1.3303   -4.3630    6.3403 O.3       1 <0>         0.0000
     13 O2          0.7746   -4.2397    6.9516 O.2       1 <0>         0.0000
     14 O3          1.4463   -1.9247   -0.1105 O.2       1 <0>         0.0000
     15 O4          0.8556   -0.4191    1.9646 O.3       1 <0>         0.0000
     16 O5          0.8996    0.6457   -0.3547 O.3       1 <0>         0.0000
     17 O6         -0.9623   -0.9855    0.2818 O.3       1 <0>         0.0000
     18 P1          0.6399   -0.7644    0.4012 P.3       1 <0>         0.0000
     19 H1         -1.9437   -3.0454    4.3843 H         1 <0>         0.0000
     20 H2          2.1918   -2.8036    5.5862 H         1 <0>         0.0000
     21 H3         -1.4879   -1.4987    2.5212 H         1 <0>         0.0000
     22 H4          2.6390   -1.2578    3.7209 H         1 <0>         0.0000
     23 H5          1.6123    2.3067   -2.3089 H         1 <0>         0.0000
     24 H6          1.8340    3.1051   -0.7337 H         1 <0>         0.0000
     25 H7          3.2431    2.6294   -1.6734 H         1 <0>         0.0000
     26 H8          0.1190   -2.3376   -1.7404 H         1 <0>         0.0000
     27 H9         -1.1527   -3.3201   -0.9752 H         1 <0>         0.0000
     28 H10        -1.4189   -2.6500   -2.5799 H         1 <0>         0.0000
     29 H11         2.8418    1.0147    0.1891 H         1 <0>         0.0000
     30 H12         2.6174    0.2112   -1.3864 H         1 <0>         0.0000
     31 H13        -2.6363   -1.3147   -0.8560 H         1 <0>         0.0000
     32 H14        -1.3629   -0.3273   -1.6187 H         1 <0>         0.0000
@<TRIPOS>BOND
     1    1    3 ar
     2    1    5 ar
     3    2    4 ar
     4    2    5 ar
     5    3    6 ar
     6    4    6 ar
     7    5   11 1
     8    6   15 1
     9    7    9 1
    10    8   10 1
    11    9   16 1
    12   10   17 1
    13   11   12 1
    14   11   13 2
    15   14   18 2
    16   15   18 1
    17   16   18 1
    18   17   18 1
    19    1   19 1
    20    2   20 1
    21    3   21 1
    22    4   22 1
    23    7   23 1
    24    7   24 1
    25    7   25 1
    26    8   26 1
    27    8   27 1
    28    8   28 1
    29    9   29 1
    30    9   30 1
    31   10   31 1
    32   10   32 1
@<TRIPOS>MOLECULE
*****
   32    32     0     0     0
SMALL
NO_CHARGES

@<TRIPOS>ATOM
      1 C1         -1.7248   -1.8069    4.1673 C.ar      1 <0>         0.0000
      2 C2          0.4553   -2.4033    5.0208 C.ar      1 <0>         0.0000
      3 C3         -1.1241   -1.1274    3.1076 C.ar      1 <0>         0.0000
      4 C4          1.0560   -1.7238    3.9610 C.ar      1 <0>         0.0000
      5 C5         -0.9351   -2.4448    5.1240 C.ar      1 <0>         0.0000
      6 C6          0.2663   -1.0858    3.0045 C.ar      1 <0>         0.0000
      7 C7          3.0787    1.0430    0.5347 C.3       1 <0>         0.0000
      8 C8         -3.0133   -1.6852   -0.7194 C.3       1 <0>         0.0000
      9 C9          2.2277    0.9829   -0.7159 C.3       1 <0>         0.0000
     10 C10        -1.5090   -1.6064   -0.8692 C.3       1 <0>         0.0000
     11 N1         -1.5463   -3.1365    6.2030 N.pl3     1 <0>         0.0000
     12 O1         -2.7986   -3.1618    6.2776 O.3       1 <0>         0.0000
     13 O2         -0.8174   -3.7032    7.0528 O.2       1 <0>         0.0000
     14 O3          1.4463   -1.9247   -0.1105 O.2       1 <0>         0.0000
     15 O4          0.8556   -0.4191    1.9646 O.3       1 <0>         0.0000
     16 O5          0.8996    0.6457   -0.3547 O.3       1 <0>         0.0000
     17 O6         -0.9623   -0.9855    0.2818 O.3       1 <0>         0.0000
     18 P1          0.6399   -0.7644    0.4012 P.3       1 <0>         0.0000
     19 H1         -2.8096   -1.8319    4.2358 H         1 <0>         0.0000
     20 H2          1.0828   -2.8957    5.7596 H         1 <0>         0.0000
     21 H3         -1.7446   -0.6326    2.3654 H         1 <0>         0.0000
     22 H4          2.1397   -1.6946    3.8862 H         1 <0>         0.0000
     23 H5          2.7021    1.8013    1.2268 H         1 <0>         0.0000
     24 H6          3.0869    0.0732    1.0430 H         1 <0>         0.0000
     25 H7          4.1180    1.2792    0.2832 H         1 <0>         0.0000
     26 H8         -3.2875   -2.2758    0.1591 H         1 <0>         0.0000
     27 H9         -3.4444   -0.6836   -0.6208 H         1 <0>         0.0000
     28 H10        -3.4660   -2.1406   -1.6065 H         1 <0>         0.0000
     29 H11         2.6097    0.2226   -1.4038 H         1 <0>         0.0000
     30 H12         2.2200    1.9528   -1.2221 H         1 <0>         0.0000
     31 H13        -1.2415   -1.0144   -1.7496 H         1 <0>         0.0000
     32 H14        -1.0797   -2.6080   -0.9669 H         1 <0>         0.0000
@<TRIPOS>BOND
     1    1    3 ar
     2    1    5 ar
     3    2    4 ar
     4    2    5 ar
     5    3    6 ar
     6    4    6 ar
     7    5   11 1
     8    6   15 1
     9    7    9 1
    10    8   10 1
    11    9   16 1
    12   10   17 1
    13   11   12 1
    14   11   13 2
    15   14   18 2
    16   15   18 1
    17   16   18 1
    18   17   18 1
    19    1   19 1
    20    2   20 1
    21    3   21 1
    22    4   22 1
    23    7   23 1
    24    7   24 1
    25    7   25 1
    26    8   26 1
    27    8   27 1
    28    8   28 1
    29    9   29 1
    30    9   30 1
    31   10   31 1
    32   10   32 1
@<TRIPOS>MOLECULE
*****
   32    32     0     0     0
SMALL
NO_CHARGES

@<TRIPOS>ATOM
      1 C1          4.4448   -0.8260    2.5882 C.ar      1 <0>         0.0000
      2 C2          3.3513   -0.1595    4.6369 C.ar      1 <0>         0.0000
      3 C3          3.2186   -0.7964    1.9241 C.ar      1 <0>         0.0000
      4 C4          2.1251   -0.1299    3.9728 C.ar      1 <0>         0.0000
      5 C5          4.5112   -0.5076    3.9447 C.ar      1 <0>         0.0000
      6 C6          2.0588   -0.4483    2.6163 C.ar      1 <0>         0.0000
      7 C7          0.9532    2.1233   -2.2286 C.3       1 <0>         0.0000
      8 C8         -0.9865   -3.3672    0.4415 C.3       1 <0>         0.0000
      9 C9          0.6411    0.7228   -1.7459 C.3       1 <0>         0.0000
     10 C10        -1.5805   -2.0713    0.9510 C.3       1 <0>         0.0000
     11 N1          5.7593   -0.5379    4.6211 N.pl3     1 <0>         0.0000
     12 O1          6.7909   -0.8537    3.9802 O.3       1 <0>         0.0000
     13 O2          5.7967   -0.2484    5.8416 O.2       1 <0>         0.0000
     14 O3          1.4463   -1.9247   -0.1105 O.2       1 <0>         0.0000
     15 O4          0.8556   -0.4191    1.9646 O.3       1 <0>         0.0000
     16 O5          0.8996    0.6457   -0.3547 O.3       1 <0>         0.0000
     17 O6         -0.9623   -0.9855    0.2818 O.3       1 <0>         0.0000
     18 P1          0.6399   -0.7644    0.4012 P.3       1 <0>         0.0000
     19 H1          5.3413   -1.0986    2.0368 H         1 <0>         0.0000
     20 H2          3.3886    0.0904    5.6944 H         1 <0>         0.0000
     21 H3          3.1733   -1.0450    0.8673 H         1 <0>         0.0000
     22 H4          1.2250    0.1416    4.5175 H         1 <0>         0.0000
     23 H5          0.3289    2.8607   -1.7163 H         1 <0>         0.0000
     24 H6          2.0058    2.3671   -2.0514 H         1 <0>         0.0000
     25 H7          0.7845    2.2061   -3.3074 H         1 <0>         0.0000
     26 H8         -1.1553   -3.4779   -0.6332 H         1 <0>         0.0000
     27 H9          0.0907   -3.4006    0.6355 H         1 <0>         0.0000
     28 H10        -1.4297   -4.2245    0.9589 H         1 <0>         0.0000
     29 H11         1.2688   -0.0097   -2.2621 H         1 <0>         0.0000
     30 H12        -0.4111    0.4812   -1.9229 H         1 <0>         0.0000
     31 H13        -1.4082   -1.9667    2.0263 H         1 <0>         0.0000
     32 H14        -2.6565   -2.0392    0.7556 H         1 <0>         0.0000
@<TRIPOS>BOND
     1    1    3 ar
     2    1    5 ar
     3    2    4 ar
     4    2    5 ar
     5    3    6 ar
     6    4    6 ar
     7    5   11 1
     8    6   15 1
     9    7    9 1
    10    8   10 1
    11    9   16 1
    12   10   17 1
    13   11   12 1
    14   11   13 2
    15   14   18 2
    16   15   18 1
    17   16   18 1
    18   17   18 1
    19    1   19 1
    20    2   20 1
    21    3   21 1
    22    4   22 1
    23    7   23 1
    24    7   24 1
    25    7   25 1
    26    8   26 1
    27    8   27 1
    28    8   28 1
    29    9   29 1
    30    9   30 1
    31   10   31 1
    32   10   32 1
@<TRIPOS>MOLECULE
*****
   32    32     0     0     0
SMALL
NO_CHARGES

@<TRIPOS>ATOM
      1 C1         -2.2089    0.5882    3.7054 C.ar      1 <0>         0.0000
      2 C2         -0.4795    2.2213    4.1286 C.ar      1 <0>         0.0000
      3 C3         -1.3223   -0.1468    2.9184 C.ar      1 <0>         0.0000
      4 C4          0.4072    1.4862    3.3417 C.ar      1 <0>         0.0000
      5 C5         -1.7875    1.7723    4.3104 C.ar      1 <0>         0.0000
      6 C6         -0.0143    0.3022    2.7366 C.ar      1 <0>         0.0000
      7 C7          3.0787    1.0430    0.5347 C.3       1 <0>         0.0000
      8 C8         -3.0494   -1.3745   -0.8096 C.3       1 <0>         0.0000
      9 C9          2.2277    0.9829   -0.7159 C.3       1 <0>         0.0000
     10 C10        -1.5563   -1.1996   -0.9873 C.3       1 <0>         0.0000
     11 N1         -2.6899    2.5209    5.1114 N.pl3     1 <0>         0.0000
     12 O1         -3.8623    2.0998    5.2623 O.3       1 <0>         0.0000
     13 O2         -2.2905    3.5835    5.6462 O.2       1 <0>         0.0000
     14 O3          1.4463   -1.9247   -0.1105 O.2       1 <0>         0.0000
     15 O4          0.8556   -0.4191    1.9646 O.3       1 <0>         0.0000
     16 O5          0.8996    0.6457   -0.3547 O.3       1 <0>         0.0000
     17 O6         -0.9623   -0.9855    0.2818 O.3       1 <0>         0.0000
     18 P1          0.6399   -0.7644    0.4012 P.3       1 <0>         0.0000
     19 H1         -3.2256    0.2269    3.8392 H         1 <0>         0.0000
     20 H2         -0.1379    3.1427    4.5939 H         1 <0>         0.0000
     21 H3         -1.6563   -1.0686    2.4499 H         1 <0>         0.0000
     22 H4          1.4248    1.8413    3.2035 H         1 <0>         0.0000
     23 H5          2.7021    1.8013    1.2268 H         1 <0>         0.0000
     24 H6          3.0869    0.0732    1.0430 H         1 <0>         0.0000
     25 H7          4.1180    1.2792    0.2832 H         1 <0>         0.0000
     26 H8         -3.2684   -2.2356   -0.1721 H         1 <0>         0.0000
     27 H9         -3.4920   -0.4798   -0.3596 H         1 <0>         0.0000
     28 H10        -3.5390   -1.5187   -1.7785 H         1 <0>         0.0000
     29 H11         2.6097    0.2226   -1.4038 H         1 <0>         0.0000
     30 H12         2.2200    1.9528   -1.2221 H         1 <0>         0.0000
     31 H13        -1.3442   -0.3369   -1.6258 H         1 <0>         0.0000
     32 H14        -1.1155   -2.0947   -1.4362 H         1 <0>         0.0000
@<TRIPOS>BOND
     1    1    3 ar
     2    1    5 ar
     3    2    4 ar
     4    2    5 ar
     5    3    6 ar
     6    4    6 ar
     7    5   11 1
     8    6   15 1
     9    7    9 1
    10    8   10 1
    11    9   16 1
    12   10   17 1
    13   11   12 1
    14   11   13 2
    15   14   18 2
    16   15   18 1
    17   16   18 1
    18   17   18 1
    19    1   19 1
    20    2   20 1
    21    3   21 1
    22    4   22 1
    23    7   23 1
    24    7   24 1
    25    7   25 1
    26    8   26 1
    27    8   27 1
    28    8   28 1
    29    9   29 1
    30    9   30 1
    31   10   31 1
    32   10   32 1
@<TRIPOS>MOLECULE
*****
   32    32     0     0     0
SMALL
NO_CHARGES

@<TRIPOS>ATOM
      1 C1         -1.2141    2.3520    3.1784 C.ar      1 <0>         0.0000
      2 C2         -1.4744    0.4577    4.6552 C.ar      1 <0>         0.0000
      3 C3         -0.3275    1.6169    2.3917 C.ar      1 <0>         0.0000
      4 C4         -0.5877   -0.2775    3.8684 C.ar      1 <0>         0.0000
      5 C5         -1.7876    1.7725    4.3102 C.ar      1 <0>         0.0000
      6 C6         -0.0143    0.3022    2.7366 C.ar      1 <0>         0.0000
      7 C7          3.0787    1.0430    0.5347 C.3       1 <0>         0.0000
      8 C8         -1.1543   -0.7830   -2.0890 C.3       1 <0>         0.0000
      9 C9          2.2277    0.9829   -0.7159 C.3       1 <0>         0.0000
     10 C10        -1.5090   -1.6064   -0.8692 C.3       1 <0>         0.0000
     11 N1         -2.6901    2.5206    5.1115 N.pl3     1 <0>         0.0000
     12 O1         -2.9585    3.7018    4.7839 O.3       1 <0>         0.0000
     13 O2         -3.1943    1.9803    6.1256 O.2       1 <0>         0.0000
     14 O3          1.4463   -1.9247   -0.1105 O.2       1 <0>         0.0000
     15 O4          0.8556   -0.4191    1.9646 O.3       1 <0>         0.0000
     16 O5          0.8996    0.6457   -0.3547 O.3       1 <0>         0.0000
     17 O6         -0.9623   -0.9855    0.2818 O.3       1 <0>         0.0000
     18 P1          0.6399   -0.7644    0.4012 P.3       1 <0>         0.0000
     19 H1         -1.4500    3.3757    2.8981 H         1 <0>         0.0000
     20 H2         -1.9137   -0.0062    5.5349 H         1 <0>         0.0000
     21 H3          0.1158    2.0737    1.5110 H         1 <0>         0.0000
     22 H4         -0.3474   -1.3011    4.1425 H         1 <0>         0.0000
     23 H5          2.7021    1.8013    1.2268 H         1 <0>         0.0000
     24 H6          3.0869    0.0732    1.0430 H         1 <0>         0.0000
     25 H7          4.1180    1.2792    0.2832 H         1 <0>         0.0000
     26 H8         -1.5640    0.2279   -2.0101 H         1 <0>         0.0000
     27 H9         -0.0678   -0.7160   -2.2070 H         1 <0>         0.0000
     28 H10        -1.5447   -1.2523   -2.9981 H         1 <0>         0.0000
     29 H11         2.6097    0.2226   -1.4038 H         1 <0>         0.0000
     30 H12         2.2200    1.9528   -1.2221 H         1 <0>         0.0000
     31 H13        -1.0963   -2.6161   -0.9545 H         1 <0>         0.0000
     32 H14        -2.5948   -1.6716   -0.7524 H         1 <0>         0.0000
@<TRIPOS>BOND
     1    1    3 ar
     2    1    5 ar
     3    2    4 ar
     4    2    5 ar
     5    3    6 ar
     6    4    6 ar
     7    5   11 1
     8    6   15 1
     9    7    9 1
    10    8   10 1
    11    9   16 1
    12   10   17 1
    13   11   12 1
    14   11   13 2
    15   14   18 2
    16   15   18 1
    17   16   18 1
    18   17   18 1
    19    1   19 1
    20    2   20 1
    21    3   21 1
    22    4   22 1
    23    7   23 1
    24    7   24 1
    25    7   25 1
    26    8   26 1
    27    8   27 1
    28    8   28 1
    29    9   29 1
    30    9   30 1
    31   10   31 1
    32   10   32 1
@<TRIPOS>MOLECULE
*****
   32    32     0     0     0
SMALL
NO_CHARGES

@<TRIPOS>ATOM
      1 C1         -0.1305   -3.4373    3.7963 C.ar      1 <0>         0.0000
      2 C2          0.5734   -1.7451    5.3704 C.ar      1 <0>         0.0000
      3 C3          0.1250   -2.5619    2.7409 C.ar      1 <0>         0.0000
      4 C4          0.8290   -0.8696    4.3150 C.ar      1 <0>         0.0000
      5 C5          0.0936   -3.0289    5.1111 C.ar      1 <0>         0.0000
      6 C6          0.6048   -1.2781    3.0002 C.ar      1 <0>         0.0000
      7 C7         -0.9533    1.8158    0.5915 C.3       1 <0>         0.0000
      8 C8         -1.1543   -0.7830   -2.0890 C.3       1 <0>         0.0000
      9 C9          0.5335    1.8437    0.3079 C.3       1 <0>         0.0000
     10 C10        -1.5090   -1.6064   -0.8692 C.3       1 <0>         0.0000
     11 N1         -0.1666   -3.9198    6.1857 N.pl3     1 <0>         0.0000
     12 O1         -0.5980   -5.0703    5.9310 O.3       1 <0>         0.0000
     13 O2          0.0415   -3.5321    7.3609 O.2       1 <0>         0.0000
     14 O3          1.4463   -1.9247   -0.1105 O.2       1 <0>         0.0000
     15 O4          0.8556   -0.4191    1.9646 O.3       1 <0>         0.0000
     16 O5          0.8996    0.6457   -0.3547 O.3       1 <0>         0.0000
     17 O6         -0.9623   -0.9855    0.2818 O.3       1 <0>         0.0000
     18 P1          0.6399   -0.7644    0.4012 P.3       1 <0>         0.0000
     19 H1         -0.5039   -4.4353    3.5803 H         1 <0>         0.0000
     20 H2          0.7521   -1.4136    6.3904 H         1 <0>         0.0000
     21 H3         -0.0512   -2.8858    1.7187 H         1 <0>         0.0000
     22 H4          1.2023    0.1293    4.5234 H         1 <0>         0.0000
     23 H5         -1.5263    1.7415   -0.3370 H         1 <0>         0.0000
     24 H6         -1.2080    0.9659    1.2331 H         1 <0>         0.0000
     25 H7         -1.2613    2.7211    1.1251 H         1 <0>         0.0000
     26 H8         -1.5640    0.2279   -2.0101 H         1 <0>         0.0000
     27 H9         -0.0678   -0.7160   -2.2070 H         1 <0>         0.0000
     28 H10        -1.5447   -1.2523   -2.9981 H         1 <0>         0.0000
     29 H11         1.1007    1.9181    1.2405 H         1 <0>         0.0000
     30 H12         0.7861    2.6929   -0.3340 H         1 <0>         0.0000
     31 H13        -1.0963   -2.6161   -0.9545 H         1 <0>         0.0000
     32 H14        -2.5948   -1.6716   -0.7524 H         1 <0>         0.0000
@<TRIPOS>BOND
     1    1    3 ar
     2    1    5 ar
     3    2    4 ar
     4    2    5 ar
     5    3    6 ar
     6    4    6 ar
     7    5   11 1
     8    6   15 1
     9    7    9 1
    10    8   10 1
    11    9   16 1
    12   10   17 1
    13   11   12 1
    14   11   13 2
    15   14   18 2
    16   15   18 1
    17   16   18 1
    18   17   18 1
    19    1   19 1
    20    2   20 1
    21    3   21 1
    22    4   22 1
    23    7   23 1
    24    7   24 1
    25    7   25 1
    26    8   26 1
    27    8   27 1
    28    8   28 1
    29    9   29 1
    30    9   30 1
    31   10   31 1
    32   10   32 1
@<TRIPOS>MOLECULE
*****
   32    32     0     0     0
SMALL
NO_CHARGES

@<TRIPOS>ATOM
      1 C1         -1.1959   -2.8324    3.8097 C.ar      1 <0>         0.0000
      2 C2         -0.0734   -1.3778    5.3786 C.ar      1 <0>         0.0000
      3 C3         -0.5953   -2.1528    2.7499 C.ar      1 <0>         0.0000
      4 C4          0.5272   -0.6983    4.3188 C.ar      1 <0>         0.0000
      5 C5         -0.9350   -2.4449    5.1240 C.ar      1 <0>         0.0000
      6 C6          0.2663   -1.0858    3.0045 C.ar      1 <0>         0.0000
      7 C7          3.0787    1.0430    0.5347 C.3       1 <0>         0.0000
      8 C8         -3.2636   -0.3588    0.1832 C.3       1 <0>         0.0000
      9 C9          2.2277    0.9829   -0.7159 C.3       1 <0>         0.0000
     10 C10        -1.8366    0.1297    0.3122 C.3       1 <0>         0.0000
     11 N1         -1.5464   -3.1363    6.2031 N.pl3     1 <0>         0.0000
     12 O1         -2.3183   -4.0934    5.9526 O.3       1 <0>         0.0000
     13 O2         -1.2984   -2.7712    7.3777 O.2       1 <0>         0.0000
     14 O3          1.4463   -1.9247   -0.1105 O.2       1 <0>         0.0000
     15 O4          0.8556   -0.4191    1.9646 O.3       1 <0>         0.0000
     16 O5          0.8996    0.6457   -0.3547 O.3       1 <0>         0.0000
     17 O6         -0.9623   -0.9855    0.2818 O.3       1 <0>         0.0000
     18 P1          0.6399   -0.7644    0.4012 P.3       1 <0>         0.0000
     19 H1         -1.8651   -3.6626    3.5974 H         1 <0>         0.0000
     20 H2          0.1384   -1.0649    6.3981 H         1 <0>         0.0000
     21 H3         -0.8021   -2.4596    1.7282 H         1 <0>         0.0000
     22 H4          1.1972    0.1324    4.5234 H         1 <0>         0.0000
     23 H5          2.7021    1.8013    1.2268 H         1 <0>         0.0000
     24 H6          3.0869    0.0732    1.0430 H         1 <0>         0.0000
     25 H7          4.1180    1.2792    0.2832 H         1 <0>         0.0000
     26 H8         -3.4100   -0.8912   -0.7607 H         1 <0>         0.0000
     27 H9         -3.5184   -1.0292    1.0105 H         1 <0>         0.0000
     28 H10        -3.9645    0.4815    0.2271 H         1 <0>         0.0000
     29 H11         2.6097    0.2226   -1.4038 H         1 <0>         0.0000
     30 H12         2.2200    1.9528   -1.2221 H         1 <0>         0.0000
     31 H13        -1.6970    0.6613    1.2582 H         1 <0>         0.0000
     32 H14        -1.5835    0.7988   -0.5156 H         1 <0>         0.0000
@<TRIPOS>BOND
     1    1    3 ar
     2    1    5 ar
     3    2    4 ar
     4    2    5 ar
     5    3    6 ar
     6    4    6 ar
     7    5   11 1
     8    6   15 1
     9    7    9 1
    10    8   10 1
    11    9   16 1
    12   10   17 1
    13   11   12 1
    14   11   13 2
    15   14   18 2
    16   15   18 1
    17   16   18 1
    18   17   18 1
    19    1   19 1
    20    2   20 1
    21    3   21 1
    22    4   22 1
    23    7   23 1
    24    7   24 1
    25    7   25 1
    26    8   26 1
    27    8   27 1
    28    8   28 1
    29    9   29 1
    30    9   30 1
    31   10   31 1
    32   10   32 1
@<TRIPOS>MOLECULE
*****
   32    32     0     0     0
SMALL
NO_CHARGES

@<TRIPOS>ATOM
      1 C1          1.0277   -3.3697    4.1328 C.ar      1 <0>         0.0000
      2 C2         -0.5847   -1.8125    5.0340 C.ar      1 <0>         0.0000
      3 C3          1.2833   -2.4944    3.0774 C.ar      1 <0>         0.0000
      4 C4         -0.3292   -0.9371    3.9785 C.ar      1 <0>         0.0000
      5 C5          0.0937   -3.0288    5.1112 C.ar      1 <0>         0.0000
      6 C6          0.6048   -1.2781    3.0002 C.ar      1 <0>         0.0000
      7 C7         -0.9533    1.8158    0.5915 C.3       1 <0>         0.0000
      8 C8         -3.0270   -2.1796    0.3797 C.3       1 <0>         0.0000
      9 C9          0.5335    1.8437    0.3079 C.3       1 <0>         0.0000
     10 C10        -1.5270   -2.2533    0.5694 C.3       1 <0>         0.0000
     11 N1         -0.1668   -3.9198    6.1856 N.pl3     1 <0>         0.0000
     12 O1          0.4541   -5.0090    6.2366 O.3       1 <0>         0.0000
     13 O2         -1.0112   -3.5938    7.0548 O.2       1 <0>         0.0000
     14 O3          1.4463   -1.9247   -0.1105 O.2       1 <0>         0.0000
     15 O4          0.8556   -0.4191    1.9646 O.3       1 <0>         0.0000
     16 O5          0.8996    0.6457   -0.3547 O.3       1 <0>         0.0000
     17 O6         -0.9623   -0.9855    0.2818 O.3       1 <0>         0.0000
     18 P1          0.6399   -0.7644    0.4012 P.3       1 <0>         0.0000
     19 H1          1.5637   -4.3144    4.1813 H         1 <0>         0.0000
     20 H2         -1.3156   -1.5344    5.7894 H         1 <0>         0.0000
     21 H3          2.0122   -2.7653    2.3185 H         1 <0>         0.0000
     22 H4         -0.8612    0.0088    3.9236 H         1 <0>         0.0000
     23 H5         -1.5263    1.7415   -0.3370 H         1 <0>         0.0000
     24 H6         -1.2080    0.9659    1.2331 H         1 <0>         0.0000
     25 H7         -1.2613    2.7211    1.1251 H         1 <0>         0.0000
     26 H8         -3.4695   -1.4398    1.0526 H         1 <0>         0.0000
     27 H9         -3.2728   -1.9101   -0.6527 H         1 <0>         0.0000
     28 H10        -3.4887   -3.1536    0.5729 H         1 <0>         0.0000
     29 H11         1.1007    1.9181    1.2405 H         1 <0>         0.0000
     30 H12         0.7861    2.6929   -0.3340 H         1 <0>         0.0000
     31 H13        -1.0907   -2.9950   -0.1065 H         1 <0>         0.0000
     32 H14        -1.2832   -2.5218    1.6016 H         1 <0>         0.0000
@<TRIPOS>BOND
     1    1    3 ar
     2    1    5 ar
     3    2    4 ar
     4    2    5 ar
     5    3    6 ar
     6    4    6 ar
     7    5   11 1
     8    6   15 1
     9    7    9 1
    10    8   10 1
    11    9   16 1
    12   10   17 1
    13   11   12 1
    14   11   13 2
    15   14   18 2
    16   15   18 1
    17   16   18 1
    18   17   18 1
    19    1   19 1
    20    2   20 1
    21    3   21 1
    22    4   22 1
    23    7   23 1
    24    7   24 1
    25    7   25 1
    26    8   26 1
    27    8   27 1
    28    8   28 1
    29    9   29 1
    30    9   30 1
    31   10   31 1
    32   10   32 1
@<TRIPOS>MOLECULE
*****
   32    32     0     0     0
SMALL
NO_CHARGES

@<TRIPOS>ATOM
      1 C1         -1.1959   -2.8324    3.8097 C.ar      1 <0>         0.0000
      2 C2         -0.0734   -1.3778    5.3786 C.ar      1 <0>         0.0000
      3 C3         -0.5953   -2.1528    2.7499 C.ar      1 <0>         0.0000
      4 C4          0.5272   -0.6983    4.3188 C.ar      1 <0>         0.0000
      5 C5         -0.9350   -2.4449    5.1240 C.ar      1 <0>         0.0000
      6 C6          0.2663   -1.0858    3.0045 C.ar      1 <0>         0.0000
      7 C7          1.2927    2.0538   -2.2415 C.3       1 <0>         0.0000
      8 C8         -3.0133   -1.6852   -0.7194 C.3       1 <0>         0.0000
      9 C9          1.0649    0.6361   -1.7621 C.3       1 <0>         0.0000
     10 C10        -1.5090   -1.6064   -0.8692 C.3       1 <0>         0.0000
     11 N1         -1.5464   -3.1363    6.2031 N.pl3     1 <0>         0.0000
     12 O1         -2.3183   -4.0934    5.9526 O.3       1 <0>         0.0000
     13 O2         -1.2984   -2.7712    7.3777 O.2       1 <0>         0.0000
     14 O3          1.4463   -1.9247   -0.1105 O.2       1 <0>         0.0000
     15 O4          0.8556   -0.4191    1.9646 O.3       1 <0>         0.0000
     16 O5          0.8996    0.6457   -0.3547 O.3       1 <0>         0.0000
     17 O6         -0.9623   -0.9855    0.2818 O.3       1 <0>         0.0000
     18 P1          0.6399   -0.7644    0.4012 P.3       1 <0>         0.0000
     19 H1         -1.8651   -3.6626    3.5974 H         1 <0>         0.0000
     20 H2          0.1384   -1.0649    6.3981 H         1 <0>         0.0000
     21 H3         -0.8021   -2.4596    1.7282 H         1 <0>         0.0000
     22 H4          1.1972    0.1324    4.5234 H         1 <0>         0.0000
     23 H5          0.4390    2.6911   -1.9948 H         1 <0>         0.0000
     24 H6          2.1932    2.4762   -1.7836 H         1 <0>         0.0000
     25 H7          1.4473    2.0744   -3.3254 H         1 <0>         0.0000
     26 H8         -3.2875   -2.2758    0.1591 H         1 <0>         0.0000
     27 H9         -3.4444   -0.6836   -0.6208 H         1 <0>         0.0000
     28 H10        -3.4660   -2.1406   -1.6065 H         1 <0>         0.0000
     29 H11         1.9223    0.0041   -2.0120 H         1 <0>         0.0000
     30 H12         0.1644    0.2159   -2.2200 H         1 <0>         0.0000
     31 H13        -1.2415   -1.0144   -1.7496 H         1 <0>         0.0000
     32 H14        -1.0797   -2.6080   -0.9669 H         1 <0>         0.0000
@<TRIPOS>BOND
     1    1    3 ar
     2    1    5 ar
     3    2    4 ar
     4    2    5 ar
     5    3    6 ar
     6    4    6 ar
     7    5   11 1
     8    6   15 1
     9    7    9 1
    10    8   10 1
    11    9   16 1
    12   10   17 1
    13   11   12 1
    14   11   13 2
    15   14   18 2
    16   15   18 1
    17   16   18 1
    18   17   18 1
    19    1   19 1
    20    2   20 1
    21    3   21 1
    22    4   22 1
    23    7   23 1
    24    7   24 1
    25    7   25 1
    26    8   26 1
    27    8   27 1
    28    8   28 1
    29    9   29 1
    30    9   30 1
    31   10   31 1
    32   10   32 1
@<TRIPOS>MOLECULE
*****
   32    32     0     0     0
SMALL
NO_CHARGES

@<TRIPOS>ATOM
      1 C1         -1.0579    2.4828    3.1281 C.ar      1 <0>         0.0000
      2 C2          1.2555    2.7438    3.7738 C.ar      1 <0>         0.0000
      3 C3         -0.7528    1.2607    2.5290 C.ar      1 <0>         0.0000
      4 C4          1.5606    1.5216    3.1747 C.ar      1 <0>         0.0000
      5 C5         -0.0537    3.2244    3.7505 C.ar      1 <0>         0.0000
      6 C6          0.5564    0.7801    2.5524 C.ar      1 <0>         0.0000
      7 C7         -0.1849    0.0697   -2.4016 C.3       1 <0>         0.0000
      8 C8         -1.2055   -2.6228    2.0018 C.3       1 <0>         0.0000
      9 C9          1.0649    0.6361   -1.7621 C.3       1 <0>         0.0000
     10 C10        -1.5270   -2.2533    0.5694 C.3       1 <0>         0.0000
     11 N1         -0.3639    4.4687    4.3603 N.pl3     1 <0>         0.0000
     12 O1         -1.5478    4.8833    4.3282 O.3       1 <0>         0.0000
     13 O2          0.5545    5.1200    4.9143 O.2       1 <0>         0.0000
     14 O3          1.4463   -1.9247   -0.1105 O.2       1 <0>         0.0000
     15 O4          0.8556   -0.4191    1.9646 O.3       1 <0>         0.0000
     16 O5          0.8996    0.6457   -0.3547 O.3       1 <0>         0.0000
     17 O6         -0.9623   -0.9855    0.2818 O.3       1 <0>         0.0000
     18 P1          0.6399   -0.7644    0.4012 P.3       1 <0>         0.0000
     19 H1         -2.0825    2.8458    3.1031 H         1 <0>         0.0000
     20 H2          2.0481    3.3117    4.2550 H         1 <0>         0.0000
     21 H3         -1.5394    0.6873    2.0460 H         1 <0>         0.0000
     22 H4          2.5825    1.1526    3.1958 H         1 <0>         0.0000
     23 H5         -0.3658   -0.9547   -2.0645 H         1 <0>         0.0000
     24 H6         -1.0574    0.6829   -2.1532 H         1 <0>         0.0000
     25 H7         -0.0948    0.0718   -3.4929 H         1 <0>         0.0000
     26 H8         -0.1245   -2.6789    2.1571 H         1 <0>         0.0000
     27 H9         -1.6244   -1.8850    2.6940 H         1 <0>         0.0000
     28 H10        -1.6501   -3.5897    2.2599 H         1 <0>         0.0000
     29 H11         1.2400    1.6607   -2.1034 H         1 <0>         0.0000
     30 H12         1.9355    0.0218   -2.0106 H         1 <0>         0.0000
     31 H13        -2.6095   -2.1989    0.4208 H         1 <0>         0.0000
     32 H14        -1.1071   -2.9910   -0.1209 H         1 <0>         0.0000
@<TRIPOS>BOND
     1    1    3 ar
     2    1    5 ar
     3    2    4 ar
     4    2    5 ar
     5    3    6 ar
     6    4    6 ar
     7    5   11 1
     8    6   15 1
     9    7    9 1
    10    8   10 1
    11    9   16 1
    12   10   17 1
    13   11   12 1
    14   11   13 2
    15   14   18 2
    16   15   18 1
    17   16   18 1
    18   17   18 1
    19    1   19 1
    20    2   20 1
    21    3   21 1
    22    4   22 1
    23    7   23 1
    24    7   24 1
    25    7   25 1
    26    8   26 1
    27    8   27 1
    28    8   28 1
    29    9   29 1
    30    9   30 1
    31   10   31 1
    32   10   32 1
@<TRIPOS>MOLECULE
*****
   32    32     0     0     0
SMALL
NO_CHARGES

@<TRIPOS>ATOM
      1 C1          4.4618   -0.2009    2.5849 C.ar      1 <0>         0.0000
      2 C2          3.3343   -0.7846    4.6404 C.ar      1 <0>         0.0000
      3 C3          3.2356   -0.1713    1.9207 C.ar      1 <0>         0.0000
      4 C4          2.1081   -0.7549    3.9762 C.ar      1 <0>         0.0000
      5 C5          4.5112   -0.5076    3.9447 C.ar      1 <0>         0.0000
      6 C6          2.0588   -0.4483    2.6163 C.ar      1 <0>         0.0000
      7 C7         -0.2657    2.0208    1.2101 C.3       1 <0>         0.0000
      8 C8         -1.2055   -2.6228    2.0018 C.3       1 <0>         0.0000
      9 C9         -0.0853    1.6592   -0.2488 C.3       1 <0>         0.0000
     10 C10        -1.5270   -2.2533    0.5694 C.3       1 <0>         0.0000
     11 N1          5.7593   -0.5380    4.6211 N.pl3     1 <0>         0.0000
     12 O1          6.8063   -0.2859    3.9771 O.3       1 <0>         0.0000
     13 O2          5.7813   -0.8165    5.8445 O.2       1 <0>         0.0000
     14 O3          1.4463   -1.9247   -0.1105 O.2       1 <0>         0.0000
     15 O4          0.8556   -0.4191    1.9646 O.3       1 <0>         0.0000
     16 O5          0.8996    0.6457   -0.3547 O.3       1 <0>         0.0000
     17 O6         -0.9623   -0.9855    0.2818 O.3       1 <0>         0.0000
     18 P1          0.6399   -0.7644    0.4012 P.3       1 <0>         0.0000
     19 H1          5.3716    0.0174    2.0309 H         1 <0>         0.0000
     20 H2          3.3584   -1.0256    5.7003 H         1 <0>         0.0000
     21 H3          3.2035    0.0686    0.8614 H         1 <0>         0.0000
     22 H4          1.1948   -0.9720    4.5234 H         1 <0>         0.0000
     23 H5         -0.5940    1.1534    1.7894 H         1 <0>         0.0000
     24 H6          0.6721    2.3948    1.6339 H         1 <0>         0.0000
     25 H7         -1.0060    2.8202    1.3207 H         1 <0>         0.0000
     26 H8         -0.1245   -2.6789    2.1571 H         1 <0>         0.0000
     27 H9         -1.6244   -1.8850    2.6940 H         1 <0>         0.0000
     28 H10        -1.6501   -3.5897    2.2599 H         1 <0>         0.0000
     29 H11         0.2431    2.5310   -0.8225 H         1 <0>         0.0000
     30 H12        -1.0229    1.2850   -0.6705 H         1 <0>         0.0000
     31 H13        -2.6095   -2.1989    0.4208 H         1 <0>         0.0000
     32 H14        -1.1071   -2.9910   -0.1209 H         1 <0>         0.0000
@<TRIPOS>BOND
     1    1    3 ar
     2    1    5 ar
     3    2    4 ar
     4    2    5 ar
     5    3    6 ar
     6    4    6 ar
     7    5   11 1
     8    6   15 1
     9    7    9 1
    10    8   10 1
    11    9   16 1
    12   10   17 1
    13   11   12 1
    14   11   13 2
    15   14   18 2
    16   15   18 1
    17   16   18 1
    18   17   18 1
    19    1   19 1
    20    2   20 1
    21    3   21 1
    22    4   22 1
    23    7   23 1
    24    7   24 1
    25    7   25 1
    26    8   26 1
    27    8   27 1
    28    8   28 1
    29    9   29 1
    30    9   30 1
    31   10   31 1
    32   10   32 1
@<TRIPOS>MOLECULE
*****
   32    32     0     0     0
SMALL
NO_CHARGES

@<TRIPOS>ATOM
      1 C1         -1.0579    2.4828    3.1281 C.ar      1 <0>         0.0000
      2 C2          1.2555    2.7438    3.7738 C.ar      1 <0>         0.0000
      3 C3         -0.7528    1.2607    2.5290 C.ar      1 <0>         0.0000
      4 C4          1.5606    1.5216    3.1747 C.ar      1 <0>         0.0000
      5 C5         -0.0537    3.2244    3.7505 C.ar      1 <0>         0.0000
      6 C6          0.5564    0.7801    2.5524 C.ar      1 <0>         0.0000
      7 C7          2.2245    2.3317   -1.4032 C.3       1 <0>         0.0000
      8 C8         -0.9865   -3.3672    0.4415 C.3       1 <0>         0.0000
      9 C9          2.2277    0.9829   -0.7159 C.3       1 <0>         0.0000
     10 C10        -1.5805   -2.0713    0.9510 C.3       1 <0>         0.0000
     11 N1         -0.3639    4.4687    4.3603 N.pl3     1 <0>         0.0000
     12 O1         -1.5478    4.8833    4.3282 O.3       1 <0>         0.0000
     13 O2          0.5545    5.1200    4.9143 O.2       1 <0>         0.0000
     14 O3          1.4463   -1.9247   -0.1105 O.2       1 <0>         0.0000
     15 O4          0.8556   -0.4191    1.9646 O.3       1 <0>         0.0000
     16 O5          0.8996    0.6457   -0.3547 O.3       1 <0>         0.0000
     17 O6         -0.9623   -0.9855    0.2818 O.3       1 <0>         0.0000
     18 P1          0.6399   -0.7644    0.4012 P.3       1 <0>         0.0000
     19 H1         -2.0825    2.8458    3.1031 H         1 <0>         0.0000
     20 H2          2.0481    3.3117    4.2550 H         1 <0>         0.0000
     21 H3         -1.5394    0.6873    2.0460 H         1 <0>         0.0000
     22 H4          2.5825    1.1526    3.1958 H         1 <0>         0.0000
     23 H5          1.6123    2.3067   -2.3089 H         1 <0>         0.0000
     24 H6          1.8340    3.1051   -0.7337 H         1 <0>         0.0000
     25 H7          3.2431    2.6294   -1.6734 H         1 <0>         0.0000
     26 H8         -1.1553   -3.4779   -0.6332 H         1 <0>         0.0000
     27 H9          0.0907   -3.4006    0.6355 H         1 <0>         0.0000
     28 H10        -1.4297   -4.2245    0.9589 H         1 <0>         0.0000
     29 H11         2.8418    1.0147    0.1891 H         1 <0>         0.0000
     30 H12         2.6174    0.2112   -1.3864 H         1 <0>         0.0000
     31 H13        -1.4082   -1.9667    2.0263 H         1 <0>         0.0000
     32 H14        -2.6565   -2.0392    0.7556 H         1 <0>         0.0000
@<TRIPOS>BOND
     1    1    3 ar
     2    1    5 ar
     3    2    4 ar
     4    2    5 ar
     5    3    6 ar
     6    4    6 ar
     7    5   11 1
     8    6   15 1
     9    7    9 1
    10    8   10 1
    11    9   16 1
    12   10   17 1
    13   11   12 1
    14   11   13 2
    15   14   18 2
    16   15   18 1
    17   16   18 1
    18   17   18 1
    19    1   19 1
    20    2   20 1
    21    3   21 1
    22    4   22 1
    23    7   23 1
    24    7   24 1
    25    7   25 1
    26    8   26 1
    27    8   27 1
    28    8   28 1
    29    9   29 1
    30    9   30 1
    31   10   31 1
    32   10   32 1
@<TRIPOS>MOLECULE
*****
   32    32     0     0     0
SMALL
NO_CHARGES

@<TRIPOS>ATOM
      1 C1         -1.6933    2.0271    2.9421 C.ar      1 <0>         0.0000
      2 C2         -0.9953    0.7825    4.8916 C.ar      1 <0>         0.0000
      3 C3         -0.8066    1.2920    2.1553 C.ar      1 <0>         0.0000
      4 C4         -0.1086    0.0474    4.1048 C.ar      1 <0>         0.0000
      5 C5         -1.7876    1.7724    4.3103 C.ar      1 <0>         0.0000
      6 C6         -0.0143    0.3022    2.7366 C.ar      1 <0>         0.0000
      7 C7          2.0767    2.6678   -0.8271 C.3       1 <0>         0.0000
      8 C8         -1.2055   -2.6228    2.0018 C.3       1 <0>         0.0000
      9 C9          2.0432    1.4023    0.0030 C.3       1 <0>         0.0000
     10 C10        -1.5270   -2.2533    0.5694 C.3       1 <0>         0.0000
     11 N1         -2.6900    2.5207    5.1115 N.pl3     1 <0>         0.0000
     12 O1         -3.3937    3.4068    4.5691 O.3       1 <0>         0.0000
     13 O2         -2.7588    2.2757    6.3403 O.2       1 <0>         0.0000
     14 O3          1.4463   -1.9247   -0.1105 O.2       1 <0>         0.0000
     15 O4          0.8556   -0.4191    1.9646 O.3       1 <0>         0.0000
     16 O5          0.8996    0.6457   -0.3547 O.3       1 <0>         0.0000
     17 O6         -0.9623   -0.9855    0.2818 O.3       1 <0>         0.0000
     18 P1          0.6399   -0.7644    0.4012 P.3       1 <0>         0.0000
     19 H1         -2.3054    2.7956    2.4763 H         1 <0>         0.0000
     20 H2         -1.0582    0.5739    5.9568 H         1 <0>         0.0000
     21 H3         -0.7379    1.4948    1.0900 H         1 <0>         0.0000
     22 H4          0.5063   -0.7222    4.5635 H         1 <0>         0.0000
     23 H5          2.1330    2.4334   -1.8937 H         1 <0>         0.0000
     24 H6          1.1824    3.2728   -0.6448 H         1 <0>         0.0000
     25 H7          2.9394    3.2849   -0.5550 H         1 <0>         0.0000
     26 H8         -0.1245   -2.6789    2.1571 H         1 <0>         0.0000
     27 H9         -1.6244   -1.8850    2.6940 H         1 <0>         0.0000
     28 H10        -1.6501   -3.5897    2.2599 H         1 <0>         0.0000
     29 H11         1.9869    1.6437    1.0686 H         1 <0>         0.0000
     30 H12         2.9369    0.7986   -0.1810 H         1 <0>         0.0000
     31 H13        -2.6095   -2.1989    0.4208 H         1 <0>         0.0000
     32 H14        -1.1071   -2.9910   -0.1209 H         1 <0>         0.0000
@<TRIPOS>BOND
     1    1    3 ar
     2    1    5 ar
     3    2    4 ar
     4    2    5 ar
     5    3    6 ar
     6    4    6 ar
     7    5   11 1
     8    6   15 1
     9    7    9 1
    10    8   10 1
    11    9   16 1
    12   10   17 1
    13   11   12 1
    14   11   13 2
    15   14   18 2
    16   15   18 1
    17   16   18 1
    18   17   18 1
    19    1   19 1
    20    2   20 1
    21    3   21 1
    22    4   22 1
    23    7   23 1
    24    7   24 1
    25    7   25 1
    26    8   26 1
    27    8   27 1
    28    8   28 1
    29    9   29 1
    30    9   30 1
    31   10   31 1
    32   10   32 1
@<TRIPOS>MOLECULE
*****
   32    32     0     0     0
SMALL
NO_CHARGES

@<TRIPOS>ATOM
      1 C1          4.0784    0.6681    3.3314 C.ar      1 <0>         0.0000
      2 C2          3.7176   -1.6536    3.8941 C.ar      1 <0>         0.0000
      3 C3          2.8523    0.6977    2.6671 C.ar      1 <0>         0.0000
      4 C4          2.4914   -1.6240    3.2298 C.ar      1 <0>         0.0000
      5 C5          4.5111   -0.5076    3.9449 C.ar      1 <0>         0.0000
      6 C6          2.0588   -0.4483    2.6163 C.ar      1 <0>         0.0000
      7 C7          2.2245    2.3317   -1.4032 C.3       1 <0>         0.0000
      8 C8         -1.0725   -3.1717    1.2340 C.3       1 <0>         0.0000
      9 C9          2.2277    0.9829   -0.7159 C.3       1 <0>         0.0000
     10 C10        -1.6441   -1.7700    1.2455 C.3       1 <0>         0.0000
     11 N1          5.7594   -0.5381    4.6210 N.pl3     1 <0>         0.0000
     12 O1          6.4582    0.5035    4.6551 O.3       1 <0>         0.0000
     13 O2          6.1299   -1.6062    5.1657 O.2       1 <0>         0.0000
     14 O3          1.4463   -1.9247   -0.1105 O.2       1 <0>         0.0000
     15 O4          0.8556   -0.4191    1.9646 O.3       1 <0>         0.0000
     16 O5          0.8996    0.6457   -0.3547 O.3       1 <0>         0.0000
     17 O6         -0.9623   -0.9855    0.2818 O.3       1 <0>         0.0000
     18 P1          0.6399   -0.7644    0.4012 P.3       1 <0>         0.0000
     19 H1          4.6871    1.5685    3.3639 H         1 <0>         0.0000
     20 H2          4.0428   -2.5768    4.3674 H         1 <0>         0.0000
     21 H3          2.5204    1.6166    2.1915 H         1 <0>         0.0000
     22 H4          1.8778   -2.5201    3.1933 H         1 <0>         0.0000
     23 H5          1.6123    2.3067   -2.3089 H         1 <0>         0.0000
     24 H6          1.8340    3.1051   -0.7337 H         1 <0>         0.0000
     25 H7          3.2431    2.6294   -1.6734 H         1 <0>         0.0000
     26 H8         -1.1994   -3.6368    0.2525 H         1 <0>         0.0000
     27 H9         -0.0063   -3.1559    1.4826 H         1 <0>         0.0000
     28 H10        -1.5656   -3.7956    1.9869 H         1 <0>         0.0000
     29 H11         2.8418    1.0147    0.1891 H         1 <0>         0.0000
     30 H12         2.6174    0.2112   -1.3864 H         1 <0>         0.0000
     31 H13        -1.5139   -1.3105    2.2299 H         1 <0>         0.0000
     32 H14        -2.7092   -1.7875    0.9962 H         1 <0>         0.0000
@<TRIPOS>BOND
     1    1    3 ar
     2    1    5 ar
     3    2    4 ar
     4    2    5 ar
     5    3    6 ar
     6    4    6 ar
     7    5   11 1
     8    6   15 1
     9    7    9 1
    10    8   10 1
    11    9   16 1
    12   10   17 1
    13   11   12 1
    14   11   13 2
    15   14   18 2
    16   15   18 1
    17   16   18 1
    18   17   18 1
    19    1   19 1
    20    2   20 1
    21    3   21 1
    22    4   22 1
    23    7   23 1
    24    7   24 1
    25    7   25 1
    26    8   26 1
    27    8   27 1
    28    8   28 1
    29    9   29 1
    30    9   30 1
    31   10   31 1
    32   10   32 1
@<TRIPOS>MOLECULE
*****
   32    32     0     0     0
SMALL
NO_CHARGES

@<TRIPOS>ATOM
      1 C1          2.1644   -3.2146    3.9417 C.ar      1 <0>         0.0000
      2 C2          0.2076   -2.3134    5.0353 C.ar      1 <0>         0.0000
      3 C3          2.0312   -2.2696    2.9245 C.ar      1 <0>         0.0000
      4 C4          0.0744   -1.3684    4.0181 C.ar      1 <0>         0.0000
      5 C5          1.2526   -3.2366    4.9971 C.ar      1 <0>         0.0000
      6 C6          0.9862   -1.3465    2.9627 C.ar      1 <0>         0.0000
      7 C7          3.2838    0.5769   -0.2642 C.3       1 <0>         0.0000
      8 C8         -1.0322   -1.7228   -1.9876 C.3       1 <0>         0.0000
      9 C9          2.0432    1.4023    0.0030 C.3       1 <0>         0.0000
     10 C10        -1.6165   -0.7787   -0.9585 C.3       1 <0>         0.0000
     11 N1          1.3878   -4.1986    6.0327 N.pl3     1 <0>         0.0000
     12 O1          2.3347   -5.0203    5.9796 O.3       1 <0>         0.0000
     13 O2          0.5564   -4.2012    6.9726 O.2       1 <0>         0.0000
     14 O3          1.4463   -1.9247   -0.1105 O.2       1 <0>         0.0000
     15 O4          0.8556   -0.4191    1.9646 O.3       1 <0>         0.0000
     16 O5          0.8996    0.6457   -0.3547 O.3       1 <0>         0.0000
     17 O6         -0.9623   -0.9855    0.2818 O.3       1 <0>         0.0000
     18 P1          0.6399   -0.7644    0.4012 P.3       1 <0>         0.0000
     19 H1          2.9837   -3.9282    3.9001 H         1 <0>         0.0000
     20 H2         -0.5104   -2.3196    5.8517 H         1 <0>         0.0000
     21 H3          2.7448   -2.2572    2.1052 H         1 <0>         0.0000
     22 H4         -0.7419   -0.6521    4.0531 H         1 <0>         0.0000
     23 H5          3.2752   -0.3431    0.3268 H         1 <0>         0.0000
     24 H6          3.3520    0.3149   -1.3252 H         1 <0>         0.0000
     25 H7          4.1863    1.1463   -0.0183 H         1 <0>         0.0000
     26 H8          0.0374   -1.5396   -2.1224 H         1 <0>         0.0000
     27 H9         -1.1767   -2.7643   -1.6820 H         1 <0>         0.0000
     28 H10        -1.5358   -1.6015   -2.9524 H         1 <0>         0.0000
     29 H11         2.0581    2.3208   -0.5911 H         1 <0>         0.0000
     30 H12         1.9761    1.6624    1.0636 H         1 <0>         0.0000
     31 H13        -2.6863   -0.9673   -0.8285 H         1 <0>         0.0000
     32 H14        -1.4705    0.2614   -1.2650 H         1 <0>         0.0000
@<TRIPOS>BOND
     1    1    3 ar
     2    1    5 ar
     3    2    4 ar
     4    2    5 ar
     5    3    6 ar
     6    4    6 ar
     7    5   11 1
     8    6   15 1
     9    7    9 1
    10    8   10 1
    11    9   16 1
    12   10   17 1
    13   11   12 1
    14   11   13 2
    15   14   18 2
    16   15   18 1
    17   16   18 1
    18   17   18 1
    19    1   19 1
    20    2   20 1
    21    3   21 1
    22    4   22 1
    23    7   23 1
    24    7   24 1
    25    7   25 1
    26    8   26 1
    27    8   27 1
    28    8   28 1
    29    9   29 1
    30    9   30 1
    31   10   31 1
    32   10   32 1
@<TRIPOS>MOLECULE
*****
   32    32     0     0     0
SMALL
NO_CHARGES

@<TRIPOS>ATOM
      1 C1          1.0277   -3.3697    4.1328 C.ar      1 <0>         0.0000
      2 C2         -0.5847   -1.8125    5.0340 C.ar      1 <0>         0.0000
      3 C3          1.2833   -2.4944    3.0774 C.ar      1 <0>         0.0000
      4 C4         -0.3292   -0.9371    3.9785 C.ar      1 <0>         0.0000
      5 C5          0.0937   -3.0288    5.1112 C.ar      1 <0>         0.0000
      6 C6          0.6048   -1.2781    3.0002 C.ar      1 <0>         0.0000
      7 C7          3.1586    0.2105   -0.9907 C.3       1 <0>         0.0000
      8 C8         -3.0270   -2.1796    0.3797 C.3       1 <0>         0.0000
      9 C9          2.2078    1.1900   -0.3364 C.3       1 <0>         0.0000
     10 C10        -1.5270   -2.2533    0.5694 C.3       1 <0>         0.0000
     11 N1         -0.1668   -3.9198    6.1856 N.pl3     1 <0>         0.0000
     12 O1          0.4541   -5.0090    6.2366 O.3       1 <0>         0.0000
     13 O2         -1.0112   -3.5938    7.0548 O.2       1 <0>         0.0000
     14 O3          1.4463   -1.9247   -0.1105 O.2       1 <0>         0.0000
     15 O4          0.8556   -0.4191    1.9646 O.3       1 <0>         0.0000
     16 O5          0.8996    0.6457   -0.3547 O.3       1 <0>         0.0000
     17 O6         -0.9623   -0.9855    0.2818 O.3       1 <0>         0.0000
     18 P1          0.6399   -0.7644    0.4012 P.3       1 <0>         0.0000
     19 H1          1.5637   -4.3144    4.1813 H         1 <0>         0.0000
     20 H2         -1.3156   -1.5344    5.7894 H         1 <0>         0.0000
     21 H3          2.0122   -2.7653    2.3185 H         1 <0>         0.0000
     22 H4         -0.8612    0.0088    3.9236 H         1 <0>         0.0000
     23 H5          3.1692   -0.7416   -0.4529 H         1 <0>         0.0000
     24 H6          2.8680    0.0261   -2.0302 H         1 <0>         0.0000
     25 H7          4.1758    0.6156   -1.0118 H         1 <0>         0.0000
     26 H8         -3.4695   -1.4398    1.0526 H         1 <0>         0.0000
     27 H9         -3.2728   -1.9101   -0.6527 H         1 <0>         0.0000
     28 H10        -3.4887   -3.1536    0.5729 H         1 <0>         0.0000
     29 H11         2.2020    2.1400   -0.8791 H         1 <0>         0.0000
     30 H12         2.4992    1.3724    0.7023 H         1 <0>         0.0000
     31 H13        -1.0907   -2.9950   -0.1065 H         1 <0>         0.0000
     32 H14        -1.2832   -2.5218    1.6016 H         1 <0>         0.0000
@<TRIPOS>BOND
     1    1    3 ar
     2    1    5 ar
     3    2    4 ar
     4    2    5 ar
     5    3    6 ar
     6    4    6 ar
     7    5   11 1
     8    6   15 1
     9    7    9 1
    10    8   10 1
    11    9   16 1
    12   10   17 1
    13   11   12 1
    14   11   13 2
    15   14   18 2
    16   15   18 1
    17   16   18 1
    18   17   18 1
    19    1   19 1
    20    2   20 1
    21    3   21 1
    22    4   22 1
    23    7   23 1
    24    7   24 1
    25    7   25 1
    26    8   26 1
    27    8   27 1
    28    8   28 1
    29    9   29 1
    30    9   30 1
    31   10   31 1
    32   10   32 1
@<TRIPOS>MOLECULE
*****
   32    32     0     0     0
SMALL
NO_CHARGES

@<TRIPOS>ATOM
      1 C1          4.0151   -1.6648    3.3439 C.ar      1 <0>         0.0000
      2 C2          3.7811    0.6790    3.8811 C.ar      1 <0>         0.0000
      3 C3          2.7889   -1.6351    2.6798 C.ar      1 <0>         0.0000
      4 C4          2.5548    0.7088    3.2170 C.ar      1 <0>         0.0000
      5 C5          4.5112   -0.5077    3.9447 C.ar      1 <0>         0.0000
      6 C6          2.0588   -0.4483    2.6163 C.ar      1 <0>         0.0000
      7 C7          0.6490    2.2420   -2.1115 C.3       1 <0>         0.0000
      8 C8         -0.9865   -3.3672    0.4415 C.3       1 <0>         0.0000
      9 C9          0.2616    0.8710   -1.5999 C.3       1 <0>         0.0000
     10 C10        -1.5805   -2.0713    0.9510 C.3       1 <0>         0.0000
     11 N1          5.7594   -0.5377    4.6210 N.pl3     1 <0>         0.0000
     12 O1          6.4005   -1.6154    4.6668 O.3       1 <0>         0.0000
     13 O2          6.1871    0.5143    5.1549 O.2       1 <0>         0.0000
     14 O3          1.4463   -1.9247   -0.1105 O.2       1 <0>         0.0000
     15 O4          0.8556   -0.4191    1.9646 O.3       1 <0>         0.0000
     16 O5          0.8996    0.6457   -0.3547 O.3       1 <0>         0.0000
     17 O6         -0.9623   -0.9855    0.2818 O.3       1 <0>         0.0000
     18 P1          0.6399   -0.7644    0.4012 P.3       1 <0>         0.0000
     19 H1          4.5743   -2.5963    3.3858 H         1 <0>         0.0000
     20 H2          4.1556    1.5881    4.3454 H         1 <0>         0.0000
     21 H3          2.4078   -2.5395    2.2135 H         1 <0>         0.0000
     22 H4          1.9905    1.6362    3.1712 H         1 <0>         0.0000
     23 H5          0.3354    3.0223   -1.4125 H         1 <0>         0.0000
     24 H6          1.7327    2.3091   -2.2533 H         1 <0>         0.0000
     25 H7          0.1881    2.4346   -3.0860 H         1 <0>         0.0000
     26 H8         -1.1553   -3.4779   -0.6332 H         1 <0>         0.0000
     27 H9          0.0907   -3.4006    0.6355 H         1 <0>         0.0000
     28 H10        -1.4297   -4.2245    0.9589 H         1 <0>         0.0000
     29 H11         0.5781    0.0952   -2.3035 H         1 <0>         0.0000
     30 H12        -0.8213    0.8059   -1.4580 H         1 <0>         0.0000
     31 H13        -1.4082   -1.9667    2.0263 H         1 <0>         0.0000
     32 H14        -2.6565   -2.0392    0.7556 H         1 <0>         0.0000
@<TRIPOS>BOND
     1    1    3 ar
     2    1    5 ar
     3    2    4 ar
     4    2    5 ar
     5    3    6 ar
     6    4    6 ar
     7    5   11 1
     8    6   15 1
     9    7    9 1
    10    8   10 1
    11    9   16 1
    12   10   17 1
    13   11   12 1
    14   11   13 2
    15   14   18 2
    16   15   18 1
    17   16   18 1
    18   17   18 1
    19    1   19 1
    20    2   20 1
    21    3   21 1
    22    4   22 1
    23    7   23 1
    24    7   24 1
    25    7   25 1
    26    8   26 1
    27    8   27 1
    28    8   28 1
    29    9   29 1
    30    9   30 1
    31   10   31 1
    32   10   32 1
@<TRIPOS>MOLECULE
*****
   32    32     0     0     0
SMALL
NO_CHARGES

@<TRIPOS>ATOM
      1 C1          4.4617   -0.1977    2.5841 C.ar      1 <0>         0.0000
      2 C2          3.2892    1.1357    4.2224 C.ar      1 <0>         0.0000
      3 C3          3.2447   -0.5557    2.0043 C.ar      1 <0>         0.0000
      4 C4          2.0720    0.7777    3.6426 C.ar      1 <0>         0.0000
      5 C5          4.4840    0.6479    3.6932 C.ar      1 <0>         0.0000
      6 C6          2.0498   -0.0680    2.5336 C.ar      1 <0>         0.0000
      7 C7         -0.9533    1.8158    0.5915 C.3       1 <0>         0.0000
      8 C8         -3.0494   -1.3745   -0.8096 C.3       1 <0>         0.0000
      9 C9          0.5335    1.8437    0.3079 C.3       1 <0>         0.0000
     10 C10        -1.5563   -1.1996   -0.9873 C.3       1 <0>         0.0000
     11 N1          5.7228    1.0123    4.2838 N.pl3     1 <0>         0.0000
     12 O1          6.7863    0.5627    3.7925 O.3       1 <0>         0.0000
     13 O2          5.7203    1.7738    5.2812 O.2       1 <0>         0.0000
     14 O3          1.4463   -1.9247   -0.1105 O.2       1 <0>         0.0000
     15 O4          0.8556   -0.4191    1.9646 O.3       1 <0>         0.0000
     16 O5          0.8996    0.6457   -0.3547 O.3       1 <0>         0.0000
     17 O6         -0.9623   -0.9855    0.2818 O.3       1 <0>         0.0000
     18 P1          0.6399   -0.7644    0.4012 P.3       1 <0>         0.0000
     19 H1          5.3858   -0.5846    2.1615 H         1 <0>         0.0000
     20 H2          3.2919    1.7951    5.0869 H         1 <0>         0.0000
     21 H3          3.2337   -1.2145    1.1403 H         1 <0>         0.0000
     22 H4          1.1446    1.1606    4.0597 H         1 <0>         0.0000
     23 H5         -1.5263    1.7415   -0.3370 H         1 <0>         0.0000
     24 H6         -1.2080    0.9659    1.2331 H         1 <0>         0.0000
     25 H7         -1.2613    2.7211    1.1251 H         1 <0>         0.0000
     26 H8         -3.2684   -2.2356   -0.1721 H         1 <0>         0.0000
     27 H9         -3.4920   -0.4798   -0.3596 H         1 <0>         0.0000
     28 H10        -3.5390   -1.5187   -1.7785 H         1 <0>         0.0000
     29 H11         1.1007    1.9181    1.2405 H         1 <0>         0.0000
     30 H12         0.7861    2.6929   -0.3340 H         1 <0>         0.0000
     31 H13        -1.3442   -0.3369   -1.6258 H         1 <0>         0.0000
     32 H14        -1.1155   -2.0947   -1.4362 H         1 <0>         0.0000
@<TRIPOS>BOND
     1    1    3 ar
     2    1    5 ar
     3    2    4 ar
     4    2    5 ar
     5    3    6 ar
     6    4    6 ar
     7    5   11 1
     8    6   15 1
     9    7    9 1
    10    8   10 1
    11    9   16 1
    12   10   17 1
    13   11   12 1
    14   11   13 2
    15   14   18 2
    16   15   18 1
    17   16   18 1
    18   17   18 1
    19    1   19 1
    20    2   20 1
    21    3   21 1
    22    4   22 1
    23    7   23 1
    24    7   24 1
    25    7   25 1
    26    8   26 1
    27    8   27 1
    28    8   28 1
    29    9   29 1
    30    9   30 1
    31   10   31 1
    32   10   32 1
@<TRIPOS>MOLECULE
*****
   32    32     0     0     0
SMALL
NO_CHARGES

@<TRIPOS>ATOM
      1 C1          0.4838   -3.5292    3.8688 C.ar      1 <0>         0.0000
      2 C2         -0.0408   -1.6531    5.2979 C.ar      1 <0>         0.0000
      3 C3          0.7393   -2.6538    2.8134 C.ar      1 <0>         0.0000
      4 C4          0.2148   -0.7777    4.2425 C.ar      1 <0>         0.0000
      5 C5          0.0937   -3.0289    5.1111 C.ar      1 <0>         0.0000
      6 C6          0.6048   -1.2781    3.0002 C.ar      1 <0>         0.0000
      7 C7          3.0787    1.0430    0.5347 C.3       1 <0>         0.0000
      8 C8         -3.0270   -2.1796    0.3797 C.3       1 <0>         0.0000
      9 C9          2.2277    0.9829   -0.7159 C.3       1 <0>         0.0000
     10 C10        -1.5270   -2.2533    0.5694 C.3       1 <0>         0.0000
     11 N1         -0.1667   -3.9198    6.1857 N.pl3     1 <0>         0.0000
     12 O1         -0.0400   -5.1538    5.9969 O.3       1 <0>         0.0000
     13 O2         -0.5168   -3.4487    7.2948 O.2       1 <0>         0.0000
     14 O3          1.4463   -1.9247   -0.1105 O.2       1 <0>         0.0000
     15 O4          0.8556   -0.4191    1.9646 O.3       1 <0>         0.0000
     16 O5          0.8996    0.6457   -0.3547 O.3       1 <0>         0.0000
     17 O6         -0.9623   -0.9855    0.2818 O.3       1 <0>         0.0000
     18 P1          0.6399   -0.7644    0.4012 P.3       1 <0>         0.0000
     19 H1          0.5927   -4.5992    3.7099 H         1 <0>         0.0000
     20 H2         -0.3446   -1.2496    6.2607 H         1 <0>         0.0000
     21 H3          1.0431   -3.0495    1.8481 H         1 <0>         0.0000
     22 H4          0.1079    0.2930    4.3940 H         1 <0>         0.0000
     23 H5          2.7021    1.8013    1.2268 H         1 <0>         0.0000
     24 H6          3.0869    0.0732    1.0430 H         1 <0>         0.0000
     25 H7          4.1180    1.2792    0.2832 H         1 <0>         0.0000
     26 H8         -3.4695   -1.4398    1.0526 H         1 <0>         0.0000
     27 H9         -3.2728   -1.9101   -0.6527 H         1 <0>         0.0000
     28 H10        -3.4887   -3.1536    0.5729 H         1 <0>         0.0000
     29 H11         2.6097    0.2226   -1.4038 H         1 <0>         0.0000
     30 H12         2.2200    1.9528   -1.2221 H         1 <0>         0.0000
     31 H13        -1.0907   -2.9950   -0.1065 H         1 <0>         0.0000
     32 H14        -1.2832   -2.5218    1.6016 H         1 <0>         0.0000
@<TRIPOS>BOND
     1    1    3 ar
     2    1    5 ar
     3    2    4 ar
     4    2    5 ar
     5    3    6 ar
     6    4    6 ar
     7    5   11 1
     8    6   15 1
     9    7    9 1
    10    8   10 1
    11    9   16 1
    12   10   17 1
    13   11   12 1
    14   11   13 2
    15   14   18 2
    16   15   18 1
    17   16   18 1
    18   17   18 1
    19    1   19 1
    20    2   20 1
    21    3   21 1
    22    4   22 1
    23    7   23 1
    24    7   24 1
    25    7   25 1
    26    8   26 1
    27    8   27 1
    28    8   28 1
    29    9   29 1
    30    9   30 1
    31   10   31 1
    32   10   32 1
@<TRIPOS>MOLECULE
*****
   32    32     0     0     0
SMALL
NO_CHARGES

@<TRIPOS>ATOM
      1 C1          0.4869   -3.5298    3.8684 C.ar      1 <0>         0.0000
      2 C2          1.8850   -1.9985    5.1084 C.ar      1 <0>         0.0000
      3 C3          0.3537   -2.5847    2.8513 C.ar      1 <0>         0.0000
      4 C4          1.7519   -1.0533    4.0912 C.ar      1 <0>         0.0000
      5 C5          1.2525   -3.2367    4.9970 C.ar      1 <0>         0.0000
      6 C6          0.9862   -1.3465    2.9627 C.ar      1 <0>         0.0000
      7 C7         -0.1849    0.0697   -2.4016 C.3       1 <0>         0.0000
      8 C8         -1.6472    1.2515    0.7566 C.3       1 <0>         0.0000
      9 C9          1.0649    0.6361   -1.7621 C.3       1 <0>         0.0000
     10 C10        -1.8462   -0.2145    1.0776 C.3       1 <0>         0.0000
     11 N1          1.3881   -4.1986    6.0327 N.pl3     1 <0>         0.0000
     12 O1          0.8110   -5.3064    5.9132 O.3       1 <0>         0.0000
     13 O2          2.0811   -3.9144    7.0395 O.2       1 <0>         0.0000
     14 O3          1.4463   -1.9247   -0.1105 O.2       1 <0>         0.0000
     15 O4          0.8556   -0.4191    1.9646 O.3       1 <0>         0.0000
     16 O5          0.8996    0.6457   -0.3547 O.3       1 <0>         0.0000
     17 O6         -0.9623   -0.9855    0.2818 O.3       1 <0>         0.0000
     18 P1          0.6399   -0.7644    0.4012 P.3       1 <0>         0.0000
     19 H1         -0.0110   -4.4912    3.7689 H         1 <0>         0.0000
     20 H2          2.4844   -1.7567    5.9827 H         1 <0>         0.0000
     21 H3         -0.2437   -2.8189    1.9744 H         1 <0>         0.0000
     22 H4          2.2467   -0.0904    4.1839 H         1 <0>         0.0000
     23 H5         -0.3658   -0.9547   -2.0645 H         1 <0>         0.0000
     24 H6         -1.0574    0.6829   -2.1532 H         1 <0>         0.0000
     25 H7         -0.0948    0.0718   -3.4929 H         1 <0>         0.0000
     26 H8         -0.6215    1.5626    0.9730 H         1 <0>         0.0000
     27 H9         -1.8610    1.4479   -0.2991 H         1 <0>         0.0000
     28 H10        -2.3351    1.8712    1.3413 H         1 <0>         0.0000
     29 H11         1.2400    1.6607   -2.1034 H         1 <0>         0.0000
     30 H12         1.9355    0.0218   -2.0106 H         1 <0>         0.0000
     31 H13        -2.8740   -0.5192    0.8590 H         1 <0>         0.0000
     32 H14        -1.6314   -0.4092    2.1326 H         1 <0>         0.0000
@<TRIPOS>BOND
     1    1    3 ar
     2    1    5 ar
     3    2    4 ar
     4    2    5 ar
     5    3    6 ar
     6    4    6 ar
     7    5   11 1
     8    6   15 1
     9    7    9 1
    10    8   10 1
    11    9   16 1
    12   10   17 1
    13   11   12 1
    14   11   13 2
    15   14   18 2
    16   15   18 1
    17   16   18 1
    18   17   18 1
    19    1   19 1
    20    2   20 1
    21    3   21 1
    22    4   22 1
    23    7   23 1
    24    7   24 1
    25    7   25 1
    26    8   26 1
    27    8   27 1
    28    8   28 1
    29    9   29 1
    30    9   30 1
    31   10   31 1
    32   10   32 1
@<TRIPOS>MOLECULE
*****
   32    32     0     0     0
SMALL
NO_CHARGES

@<TRIPOS>ATOM
      1 C1         -1.3203    2.4475    2.6608 C.ar      1 <0>         0.0000
      2 C2         -0.1490    1.8279    4.6810 C.ar      1 <0>         0.0000
      3 C3         -0.6793    1.4170    1.9731 C.ar      1 <0>         0.0000
      4 C4          0.4920    0.7974    3.9933 C.ar      1 <0>         0.0000
      5 C5         -1.0551    2.6529    4.0148 C.ar      1 <0>         0.0000
      6 C6          0.2268    0.5920    2.6394 C.ar      1 <0>         0.0000
      7 C7          3.0787    1.0430    0.5347 C.3       1 <0>         0.0000
      8 C8         -1.1543   -0.7830   -2.0890 C.3       1 <0>         0.0000
      9 C9          2.2277    0.9829   -0.7159 C.3       1 <0>         0.0000
     10 C10        -1.5090   -1.6064   -0.8692 C.3       1 <0>         0.0000
     11 N1         -1.7073    3.7020    4.7151 N.pl3     1 <0>         0.0000
     12 O1         -2.5188    4.4330    4.0973 O.3       1 <0>         0.0000
     13 O2         -1.4540    3.8697    5.9326 O.2       1 <0>         0.0000
     14 O3          1.4463   -1.9247   -0.1105 O.2       1 <0>         0.0000
     15 O4          0.8556   -0.4191    1.9646 O.3       1 <0>         0.0000
     16 O5          0.8996    0.6457   -0.3547 O.3       1 <0>         0.0000
     17 O6         -0.9623   -0.9855    0.2818 O.3       1 <0>         0.0000
     18 P1          0.6399   -0.7644    0.4012 P.3       1 <0>         0.0000
     19 H1         -2.0246    3.0831    2.1297 H         1 <0>         0.0000
     20 H2          0.0674    1.9771    5.7360 H         1 <0>         0.0000
     21 H3         -0.8902    1.2617    0.9185 H         1 <0>         0.0000
     22 H4          1.1971    0.1582    4.5177 H         1 <0>         0.0000
     23 H5          2.7021    1.8013    1.2268 H         1 <0>         0.0000
     24 H6          3.0869    0.0732    1.0430 H         1 <0>         0.0000
     25 H7          4.1180    1.2792    0.2832 H         1 <0>         0.0000
     26 H8         -1.5640    0.2279   -2.0101 H         1 <0>         0.0000
     27 H9         -0.0678   -0.7160   -2.2070 H         1 <0>         0.0000
     28 H10        -1.5447   -1.2523   -2.9981 H         1 <0>         0.0000
     29 H11         2.6097    0.2226   -1.4038 H         1 <0>         0.0000
     30 H12         2.2200    1.9528   -1.2221 H         1 <0>         0.0000
     31 H13        -1.0963   -2.6161   -0.9545 H         1 <0>         0.0000
     32 H14        -2.5948   -1.6716   -0.7524 H         1 <0>         0.0000
@<TRIPOS>BOND
     1    1    3 ar
     2    1    5 ar
     3    2    4 ar
     4    2    5 ar
     5    3    6 ar
     6    4    6 ar
     7    5   11 1
     8    6   15 1
     9    7    9 1
    10    8   10 1
    11    9   16 1
    12   10   17 1
    13   11   12 1
    14   11   13 2
    15   14   18 2
    16   15   18 1
    17   16   18 1
    18   17   18 1
    19    1   19 1
    20    2   20 1
    21    3   21 1
    22    4   22 1
    23    7   23 1
    24    7   24 1
    25    7   25 1
    26    8   26 1
    27    8   27 1
    28    8   28 1
    29    9   29 1
    30    9   30 1
    31   10   31 1
    32   10   32 1
@<TRIPOS>MOLECULE
*****
   32    32     0     0     0
SMALL
NO_CHARGES

@<TRIPOS>ATOM
      1 C1          4.0151   -1.6648    3.3439 C.ar      1 <0>         0.0000
      2 C2          3.7811    0.6790    3.8811 C.ar      1 <0>         0.0000
      3 C3          2.7889   -1.6351    2.6798 C.ar      1 <0>         0.0000
      4 C4          2.5548    0.7088    3.2170 C.ar      1 <0>         0.0000
      5 C5          4.5112   -0.5077    3.9447 C.ar      1 <0>         0.0000
      6 C6          2.0588   -0.4483    2.6163 C.ar      1 <0>         0.0000
      7 C7          1.2927    2.0538   -2.2415 C.3       1 <0>         0.0000
      8 C8         -3.0494   -1.3745   -0.8096 C.3       1 <0>         0.0000
      9 C9          1.0649    0.6361   -1.7621 C.3       1 <0>         0.0000
     10 C10        -1.5563   -1.1996   -0.9873 C.3       1 <0>         0.0000
     11 N1          5.7594   -0.5377    4.6210 N.pl3     1 <0>         0.0000
     12 O1          6.4005   -1.6154    4.6668 O.3       1 <0>         0.0000
     13 O2          6.1871    0.5143    5.1549 O.2       1 <0>         0.0000
     14 O3          1.4463   -1.9247   -0.1105 O.2       1 <0>         0.0000
     15 O4          0.8556   -0.4191    1.9646 O.3       1 <0>         0.0000
     16 O5          0.8996    0.6457   -0.3547 O.3       1 <0>         0.0000
     17 O6         -0.9623   -0.9855    0.2818 O.3       1 <0>         0.0000
     18 P1          0.6399   -0.7644    0.4012 P.3       1 <0>         0.0000
     19 H1          4.5743   -2.5963    3.3858 H         1 <0>         0.0000
     20 H2          4.1556    1.5881    4.3454 H         1 <0>         0.0000
     21 H3          2.4078   -2.5395    2.2135 H         1 <0>         0.0000
     22 H4          1.9905    1.6362    3.1712 H         1 <0>         0.0000
     23 H5          0.4390    2.6911   -1.9948 H         1 <0>         0.0000
     24 H6          2.1932    2.4762   -1.7836 H         1 <0>         0.0000
     25 H7          1.4473    2.0744   -3.3254 H         1 <0>         0.0000
     26 H8         -3.2684   -2.2356   -0.1721 H         1 <0>         0.0000
     27 H9         -3.4920   -0.4798   -0.3596 H         1 <0>         0.0000
     28 H10        -3.5390   -1.5187   -1.7785 H         1 <0>         0.0000
     29 H11         1.9223    0.0041   -2.0120 H         1 <0>         0.0000
     30 H12         0.1644    0.2159   -2.2200 H         1 <0>         0.0000
     31 H13        -1.3442   -0.3369   -1.6258 H         1 <0>         0.0000
     32 H14        -1.1155   -2.0947   -1.4362 H         1 <0>         0.0000
@<TRIPOS>BOND
     1    1    3 ar
     2    1    5 ar
     3    2    4 ar
     4    2    5 ar
     5    3    6 ar
     6    4    6 ar
     7    5   11 1
     8    6   15 1
     9    7    9 1
    10    8   10 1
    11    9   16 1
    12   10   17 1
    13   11   12 1
    14   11   13 2
    15   14   18 2
    16   15   18 1
    17   16   18 1
    18   17   18 1
    19    1   19 1
    20    2   20 1
    21    3   21 1
    22    4   22 1
    23    7   23 1
    24    7   24 1
    25    7   25 1
    26    8   26 1
    27    8   27 1
    28    8   28 1
    29    9   29 1
    30    9   30 1
    31   10   31 1
    32   10   32 1
@<TRIPOS>MOLECULE
*****
   32    32     0     0     0
SMALL
NO_CHARGES

@<TRIPOS>ATOM
      1 C1          4.0151   -1.6648    3.3439 C.ar      1 <0>         0.0000
      2 C2          3.7811    0.6790    3.8811 C.ar      1 <0>         0.0000
      3 C3          2.7889   -1.6351    2.6798 C.ar      1 <0>         0.0000
      4 C4          2.5548    0.7088    3.2170 C.ar      1 <0>         0.0000
      5 C5          4.5112   -0.5077    3.9447 C.ar      1 <0>         0.0000
      6 C6          2.0588   -0.4483    2.6163 C.ar      1 <0>         0.0000
      7 C7          3.1586    0.2105   -0.9907 C.3       1 <0>         0.0000
      8 C8         -3.2760   -0.4393    0.4984 C.3       1 <0>         0.0000
      9 C9          2.2078    1.1900   -0.3364 C.3       1 <0>         0.0000
     10 C10        -1.8528    0.0243    0.7248 C.3       1 <0>         0.0000
     11 N1          5.7594   -0.5377    4.6210 N.pl3     1 <0>         0.0000
     12 O1          6.4005   -1.6154    4.6668 O.3       1 <0>         0.0000
     13 O2          6.1871    0.5143    5.1549 O.2       1 <0>         0.0000
     14 O3          1.4463   -1.9247   -0.1105 O.2       1 <0>         0.0000
     15 O4          0.8556   -0.4191    1.9646 O.3       1 <0>         0.0000
     16 O5          0.8996    0.6457   -0.3547 O.3       1 <0>         0.0000
     17 O6         -0.9623   -0.9855    0.2818 O.3       1 <0>         0.0000
     18 P1          0.6399   -0.7644    0.4012 P.3       1 <0>         0.0000
     19 H1          4.5743   -2.5963    3.3858 H         1 <0>         0.0000
     20 H2          4.1556    1.5881    4.3454 H         1 <0>         0.0000
     21 H3          2.4078   -2.5395    2.2135 H         1 <0>         0.0000
     22 H4          1.9905    1.6362    3.1712 H         1 <0>         0.0000
     23 H5          3.1692   -0.7416   -0.4529 H         1 <0>         0.0000
     24 H6          2.8680    0.0261   -2.0302 H         1 <0>         0.0000
     25 H7          4.1758    0.6156   -1.0118 H         1 <0>         0.0000
     26 H8         -3.4612   -0.6268   -0.5629 H         1 <0>         0.0000
     27 H9         -3.4768   -1.3576    1.0600 H         1 <0>         0.0000
     28 H10        -3.9880    0.3131    0.8537 H         1 <0>         0.0000
     29 H11         2.2020    2.1400   -0.8791 H         1 <0>         0.0000
     30 H12         2.4992    1.3724    0.7023 H         1 <0>         0.0000
     31 H13        -1.6742    0.2100    1.7881 H         1 <0>         0.0000
     32 H14        -1.6537    0.9414    0.1624 H         1 <0>         0.0000
@<TRIPOS>BOND
     1    1    3 ar
     2    1    5 ar
     3    2    4 ar
     4    2    5 ar
     5    3    6 ar
     6    4    6 ar
     7    5   11 1
     8    6   15 1
     9    7    9 1
    10    8   10 1
    11    9   16 1
    12   10   17 1
    13   11   12 1
    14   11   13 2
    15   14   18 2
    16   15   18 1
    17   16   18 1
    18   17   18 1
    19    1   19 1
    20    2   20 1
    21    3   21 1
    22    4   22 1
    23    7   23 1
    24    7   24 1
    25    7   25 1
    26    8   26 1
    27    8   27 1
    28    8   28 1
    29    9   29 1
    30    9   30 1
    31   10   31 1
    32   10   32 1
@<TRIPOS>MOLECULE
*****
   32    32     0     0     0
SMALL
NO_CHARGES

@<TRIPOS>ATOM
      1 C1          4.4618   -0.2009    2.5849 C.ar      1 <0>         0.0000
      2 C2          3.3343   -0.7846    4.6404 C.ar      1 <0>         0.0000
      3 C3          3.2356   -0.1713    1.9207 C.ar      1 <0>         0.0000
      4 C4          2.1081   -0.7549    3.9762 C.ar      1 <0>         0.0000
      5 C5          4.5112   -0.5076    3.9447 C.ar      1 <0>         0.0000
      6 C6          2.0588   -0.4483    2.6163 C.ar      1 <0>         0.0000
      7 C7         -0.9533    1.8158    0.5915 C.3       1 <0>         0.0000
      8 C8         -1.1543   -0.7830   -2.0890 C.3       1 <0>         0.0000
      9 C9          0.5335    1.8437    0.3079 C.3       1 <0>         0.0000
     10 C10        -1.5090   -1.6064   -0.8692 C.3       1 <0>         0.0000
     11 N1          5.7593   -0.5380    4.6211 N.pl3     1 <0>         0.0000
     12 O1          6.8063   -0.2859    3.9771 O.3       1 <0>         0.0000
     13 O2          5.7813   -0.8165    5.8445 O.2       1 <0>         0.0000
     14 O3          1.4463   -1.9247   -0.1105 O.2       1 <0>         0.0000
     15 O4          0.8556   -0.4191    1.9646 O.3       1 <0>         0.0000
     16 O5          0.8996    0.6457   -0.3547 O.3       1 <0>         0.0000
     17 O6         -0.9623   -0.9855    0.2818 O.3       1 <0>         0.0000
     18 P1          0.6399   -0.7644    0.4012 P.3       1 <0>         0.0000
     19 H1          5.3716    0.0174    2.0309 H         1 <0>         0.0000
     20 H2          3.3584   -1.0256    5.7003 H         1 <0>         0.0000
     21 H3          3.2035    0.0686    0.8614 H         1 <0>         0.0000
     22 H4          1.1948   -0.9720    4.5234 H         1 <0>         0.0000
     23 H5         -1.5263    1.7415   -0.3370 H         1 <0>         0.0000
     24 H6         -1.2080    0.9659    1.2331 H         1 <0>         0.0000
     25 H7         -1.2613    2.7211    1.1251 H         1 <0>         0.0000
     26 H8         -1.5640    0.2279   -2.0101 H         1 <0>         0.0000
     27 H9         -0.0678   -0.7160   -2.2070 H         1 <0>         0.0000
     28 H10        -1.5447   -1.2523   -2.9981 H         1 <0>         0.0000
     29 H11         1.1007    1.9181    1.2405 H         1 <0>         0.0000
     30 H12         0.7861    2.6929   -0.3340 H         1 <0>         0.0000
     31 H13        -1.0963   -2.6161   -0.9545 H         1 <0>         0.0000
     32 H14        -2.5948   -1.6716   -0.7524 H         1 <0>         0.0000
@<TRIPOS>BOND
     1    1    3 ar
     2    1    5 ar
     3    2    4 ar
     4    2    5 ar
     5    3    6 ar
     6    4    6 ar
     7    5   11 1
     8    6   15 1
     9    7    9 1
    10    8   10 1
    11    9   16 1
    12   10   17 1
    13   11   12 1
    14   11   13 2
    15   14   18 2
    16   15   18 1
    17   16   18 1
    18   17   18 1
    19    1   19 1
    20    2   20 1
    21    3   21 1
    22    4   22 1
    23    7   23 1
    24    7   24 1
    25    7   25 1
    26    8   26 1
    27    8   27 1
    28    8   28 1
    29    9   29 1
    30    9   30 1
    31   10   31 1
    32   10   32 1
@<TRIPOS>MOLECULE
*****
   32    32     0     0     0
SMALL
NO_CHARGES

@<TRIPOS>ATOM
      1 C1          2.3828   -2.7714    4.3250 C.ar      1 <0>         0.0000
      2 C2         -0.0109   -2.7566    4.6521 C.ar      1 <0>         0.0000
      3 C3          2.2497   -1.8264    3.3077 C.ar      1 <0>         0.0000
      4 C4         -0.1441   -1.8116    3.6349 C.ar      1 <0>         0.0000
      5 C5          1.2526   -3.2365    4.9972 C.ar      1 <0>         0.0000
      6 C6          0.9862   -1.3465    2.9627 C.ar      1 <0>         0.0000
      7 C7          1.2927    2.0538   -2.2415 C.3       1 <0>         0.0000
      8 C8         -1.6581    0.8605    1.6259 C.3       1 <0>         0.0000
      9 C9          1.0649    0.6361   -1.7621 C.3       1 <0>         0.0000
     10 C10        -1.8366    0.1297    0.3122 C.3       1 <0>         0.0000
     11 N1          1.3878   -4.1987    6.0326 N.pl3     1 <0>         0.0000
     12 O1          2.5332   -4.6177    6.3277 O.3       1 <0>         0.0000
     13 O2          0.3581   -4.6041    6.6242 O.2       1 <0>         0.0000
     14 O3          1.4463   -1.9247   -0.1105 O.2       1 <0>         0.0000
     15 O4          0.8556   -0.4191    1.9646 O.3       1 <0>         0.0000
     16 O5          0.8996    0.6457   -0.3547 O.3       1 <0>         0.0000
     17 O6         -0.9623   -0.9855    0.2818 O.3       1 <0>         0.0000
     18 P1          0.6399   -0.7644    0.4012 P.3       1 <0>         0.0000
     19 H1          3.3734   -3.1369    4.5843 H         1 <0>         0.0000
     20 H2         -0.9003   -3.1109    5.1674 H         1 <0>         0.0000
     21 H3          3.1339   -1.4675    2.7879 H         1 <0>         0.0000
     22 H4         -1.1310   -1.4418    3.3703 H         1 <0>         0.0000
     23 H5          0.4390    2.6911   -1.9948 H         1 <0>         0.0000
     24 H6          2.1932    2.4762   -1.7836 H         1 <0>         0.0000
     25 H7          1.4473    2.0744   -3.3254 H         1 <0>         0.0000
     26 H8         -1.8954    0.2080    2.4707 H         1 <0>         0.0000
     27 H9         -0.6283    1.2168    1.7326 H         1 <0>         0.0000
     28 H10        -2.3059    1.7425    1.6679 H         1 <0>         0.0000
     29 H11         1.9223    0.0041   -2.0120 H         1 <0>         0.0000
     30 H12         0.1644    0.2159   -2.2200 H         1 <0>         0.0000
     31 H13        -1.5978    0.7878   -0.5286 H         1 <0>         0.0000
     32 H14        -2.8658   -0.2263    0.2075 H         1 <0>         0.0000
@<TRIPOS>BOND
     1    1    3 ar
     2    1    5 ar
     3    2    4 ar
     4    2    5 ar
     5    3    6 ar
     6    4    6 ar
     7    5   11 1
     8    6   15 1
     9    7    9 1
    10    8   10 1
    11    9   16 1
    12   10   17 1
    13   11   12 1
    14   11   13 2
    15   14   18 2
    16   15   18 1
    17   16   18 1
    18   17   18 1
    19    1   19 1
    20    2   20 1
    21    3   21 1
    22    4   22 1
    23    7   23 1
    24    7   24 1
    25    7   25 1
    26    8   26 1
    27    8   27 1
    28    8   28 1
    29    9   29 1
    30    9   30 1
    31   10   31 1
    32   10   32 1
@<TRIPOS>MOLECULE
*****
   32    32     0     0     0
SMALL
NO_CHARGES

@<TRIPOS>ATOM
      1 C1         -1.3203    2.4475    2.6608 C.ar      1 <0>         0.0000
      2 C2         -0.1490    1.8279    4.6810 C.ar      1 <0>         0.0000
      3 C3         -0.6793    1.4170    1.9731 C.ar      1 <0>         0.0000
      4 C4          0.4920    0.7974    3.9933 C.ar      1 <0>         0.0000
      5 C5         -1.0551    2.6529    4.0148 C.ar      1 <0>         0.0000
      6 C6          0.2268    0.5920    2.6394 C.ar      1 <0>         0.0000
      7 C7          3.0787    1.0430    0.5347 C.3       1 <0>         0.0000
      8 C8         -1.2055   -2.6228    2.0018 C.3       1 <0>         0.0000
      9 C9          2.2277    0.9829   -0.7159 C.3       1 <0>         0.0000
     10 C10        -1.5270   -2.2533    0.5694 C.3       1 <0>         0.0000
     11 N1         -1.7073    3.7020    4.7151 N.pl3     1 <0>         0.0000
     12 O1         -2.5188    4.4330    4.0973 O.3       1 <0>         0.0000
     13 O2         -1.4540    3.8697    5.9326 O.2       1 <0>         0.0000
     14 O3          1.4463   -1.9247   -0.1105 O.2       1 <0>         0.0000
     15 O4          0.8556   -0.4191    1.9646 O.3       1 <0>         0.0000
     16 O5          0.8996    0.6457   -0.3547 O.3       1 <0>         0.0000
     17 O6         -0.9623   -0.9855    0.2818 O.3       1 <0>         0.0000
     18 P1          0.6399   -0.7644    0.4012 P.3       1 <0>         0.0000
     19 H1         -2.0246    3.0831    2.1297 H         1 <0>         0.0000
     20 H2          0.0674    1.9771    5.7360 H         1 <0>         0.0000
     21 H3         -0.8902    1.2617    0.9185 H         1 <0>         0.0000
     22 H4          1.1971    0.1582    4.5177 H         1 <0>         0.0000
     23 H5          2.7021    1.8013    1.2268 H         1 <0>         0.0000
     24 H6          3.0869    0.0732    1.0430 H         1 <0>         0.0000
     25 H7          4.1180    1.2792    0.2832 H         1 <0>         0.0000
     26 H8         -0.1245   -2.6789    2.1571 H         1 <0>         0.0000
     27 H9         -1.6244   -1.8850    2.6940 H         1 <0>         0.0000
     28 H10        -1.6501   -3.5897    2.2599 H         1 <0>         0.0000
     29 H11         2.6097    0.2226   -1.4038 H         1 <0>         0.0000
     30 H12         2.2200    1.9528   -1.2221 H         1 <0>         0.0000
     31 H13        -2.6095   -2.1989    0.4208 H         1 <0>         0.0000
     32 H14        -1.1071   -2.9910   -0.1209 H         1 <0>         0.0000
@<TRIPOS>BOND
     1    1    3 ar
     2    1    5 ar
     3    2    4 ar
     4    2    5 ar
     5    3    6 ar
     6    4    6 ar
     7    5   11 1
     8    6   15 1
     9    7    9 1
    10    8   10 1
    11    9   16 1
    12   10   17 1
    13   11   12 1
    14   11   13 2
    15   14   18 2
    16   15   18 1
    17   16   18 1
    18   17   18 1
    19    1   19 1
    20    2   20 1
    21    3   21 1
    22    4   22 1
    23    7   23 1
    24    7   24 1
    25    7   25 1
    26    8   26 1
    27    8   27 1
    28    8   28 1
    29    9   29 1
    30    9   30 1
    31   10   31 1
    32   10   32 1
@<TRIPOS>MOLECULE
*****
   32    32     0     0     0
SMALL
NO_CHARGES

@<TRIPOS>ATOM
      1 C1          2.1644   -3.2146    3.9417 C.ar      1 <0>         0.0000
      2 C2          0.2076   -2.3134    5.0353 C.ar      1 <0>         0.0000
      3 C3          2.0312   -2.2696    2.9245 C.ar      1 <0>         0.0000
      4 C4          0.0744   -1.3684    4.0181 C.ar      1 <0>         0.0000
      5 C5          1.2526   -3.2366    4.9971 C.ar      1 <0>         0.0000
      6 C6          0.9862   -1.3465    2.9627 C.ar      1 <0>         0.0000
      7 C7          0.5787    2.9742   -0.7699 C.3       1 <0>         0.0000
      8 C8         -0.9865   -3.3672    0.4415 C.3       1 <0>         0.0000
      9 C9          0.1738    1.7847    0.0744 C.3       1 <0>         0.0000
     10 C10        -1.5805   -2.0713    0.9510 C.3       1 <0>         0.0000
     11 N1          1.3878   -4.1986    6.0327 N.pl3     1 <0>         0.0000
     12 O1          2.3347   -5.0203    5.9796 O.3       1 <0>         0.0000
     13 O2          0.5564   -4.2012    6.9726 O.2       1 <0>         0.0000
     14 O3          1.4463   -1.9247   -0.1105 O.2       1 <0>         0.0000
     15 O4          0.8556   -0.4191    1.9646 O.3       1 <0>         0.0000
     16 O5          0.8996    0.6457   -0.3547 O.3       1 <0>         0.0000
     17 O6         -0.9623   -0.9855    0.2818 O.3       1 <0>         0.0000
     18 P1          0.6399   -0.7644    0.4012 P.3       1 <0>         0.0000
     19 H1          2.9837   -3.9282    3.9001 H         1 <0>         0.0000
     20 H2         -0.5104   -2.3196    5.8517 H         1 <0>         0.0000
     21 H3          2.7448   -2.2572    2.1052 H         1 <0>         0.0000
     22 H4         -0.7419   -0.6521    4.0531 H         1 <0>         0.0000
     23 H5          1.6473    3.1815   -0.6651 H         1 <0>         0.0000
     24 H6          0.3559    2.7916   -1.8263 H         1 <0>         0.0000
     25 H7          0.0154    3.8660   -0.4754 H         1 <0>         0.0000
     26 H8         -1.1553   -3.4779   -0.6332 H         1 <0>         0.0000
     27 H9          0.0907   -3.4006    0.6355 H         1 <0>         0.0000
     28 H10        -1.4297   -4.2245    0.9589 H         1 <0>         0.0000
     29 H11        -0.8959    1.5828   -0.0350 H         1 <0>         0.0000
     30 H12         0.3978    1.9686    1.1294 H         1 <0>         0.0000
     31 H13        -1.4082   -1.9667    2.0263 H         1 <0>         0.0000
     32 H14        -2.6565   -2.0392    0.7556 H         1 <0>         0.0000
@<TRIPOS>BOND
     1    1    3 ar
     2    1    5 ar
     3    2    4 ar
     4    2    5 ar
     5    3    6 ar
     6    4    6 ar
     7    5   11 1
     8    6   15 1
     9    7    9 1
    10    8   10 1
    11    9   16 1
    12   10   17 1
    13   11   12 1
    14   11   13 2
    15   14   18 2
    16   15   18 1
    17   16   18 1
    18   17   18 1
    19    1   19 1
    20    2   20 1
    21    3   21 1
    22    4   22 1
    23    7   23 1
    24    7   24 1
    25    7   25 1
    26    8   26 1
    27    8   27 1
    28    8   28 1
    29    9   29 1
    30    9   30 1
    31   10   31 1
    32   10   32 1
@<TRIPOS>MOLECULE
*****
   32    32     0     0     0
SMALL
NO_CHARGES

@<TRIPOS>ATOM
      1 C1          3.9423    1.4275    2.6712 C.ar      1 <0>         0.0000
      2 C2          3.8085   -0.4895    4.1356 C.ar      1 <0>         0.0000
      3 C3          2.7253    1.0695    2.0913 C.ar      1 <0>         0.0000
      4 C4          2.5914   -0.8475    3.5557 C.ar      1 <0>         0.0000
      5 C5          4.4839    0.6480    3.6934 C.ar      1 <0>         0.0000
      6 C6          2.0498   -0.0680    2.5336 C.ar      1 <0>         0.0000
      7 C7          0.7078   -0.1913   -2.5818 C.3       1 <0>         0.0000
      8 C8         -1.0725   -3.1717    1.2340 C.3       1 <0>         0.0000
      9 C9          0.2616    0.8710   -1.5999 C.3       1 <0>         0.0000
     10 C10        -1.6441   -1.7700    1.2455 C.3       1 <0>         0.0000
     11 N1          5.7229    1.0121    4.2838 N.pl3     1 <0>         0.0000
     12 O1          6.3146    2.0389    3.8714 O.3       1 <0>         0.0000
     13 O2          6.1926    0.2967    5.2016 O.2       1 <0>         0.0000
     14 O3          1.4463   -1.9247   -0.1105 O.2       1 <0>         0.0000
     15 O4          0.8556   -0.4191    1.9646 O.3       1 <0>         0.0000
     16 O5          0.8996    0.6457   -0.3547 O.3       1 <0>         0.0000
     17 O6         -0.9623   -0.9855    0.2818 O.3       1 <0>         0.0000
     18 P1          0.6399   -0.7644    0.4012 P.3       1 <0>         0.0000
     19 H1          4.4583    2.3167    2.3174 H         1 <0>         0.0000
     20 H2          4.2194   -1.1063    4.9311 H         1 <0>         0.0000
     21 H3          2.3082    1.6809    1.2957 H         1 <0>         0.0000
     22 H4          2.0701   -1.7349    3.9042 H         1 <0>         0.0000
     23 H5          1.7902   -0.1534   -2.7325 H         1 <0>         0.0000
     24 H6          0.4356   -1.1888   -2.2216 H         1 <0>         0.0000
     25 H7          0.2116   -0.0558   -3.5486 H         1 <0>         0.0000
     26 H8         -1.1994   -3.6368    0.2525 H         1 <0>         0.0000
     27 H9         -0.0063   -3.1559    1.4826 H         1 <0>         0.0000
     28 H10        -1.5656   -3.7956    1.9869 H         1 <0>         0.0000
     29 H11        -0.8218    0.8277   -1.4537 H         1 <0>         0.0000
     30 H12         0.5350    1.8669   -1.9610 H         1 <0>         0.0000
     31 H13        -1.5139   -1.3105    2.2299 H         1 <0>         0.0000
     32 H14        -2.7092   -1.7875    0.9962 H         1 <0>         0.0000
@<TRIPOS>BOND
     1    1    3 ar
     2    1    5 ar
     3    2    4 ar
     4    2    5 ar
     5    3    6 ar
     6    4    6 ar
     7    5   11 1
     8    6   15 1
     9    7    9 1
    10    8   10 1
    11    9   16 1
    12   10   17 1
    13   11   12 1
    14   11   13 2
    15   14   18 2
    16   15   18 1
    17   16   18 1
    18   17   18 1
    19    1   19 1
    20    2   20 1
    21    3   21 1
    22    4   22 1
    23    7   23 1
    24    7   24 1
    25    7   25 1
    26    8   26 1
    27    8   27 1
    28    8   28 1
    29    9   29 1
    30    9   30 1
    31   10   31 1
    32   10   32 1
@<TRIPOS>MOLECULE
*****
   32    32     0     0     0
SMALL
NO_CHARGES

@<TRIPOS>ATOM
      1 C1         -0.9369   -2.6587    4.2467 C.ar      1 <0>         0.0000
      2 C2          1.3795   -2.5237    4.9198 C.ar      1 <0>         0.0000
      3 C3         -0.6812   -1.7832    3.1914 C.ar      1 <0>         0.0000
      4 C4          1.6352   -1.6483    3.8644 C.ar      1 <0>         0.0000
      5 C5          0.0935   -3.0289    5.1110 C.ar      1 <0>         0.0000
      6 C6          0.6048   -1.2781    3.0002 C.ar      1 <0>         0.0000
      7 C7          3.2838    0.5769   -0.2642 C.3       1 <0>         0.0000
      8 C8         -1.0322   -1.7228   -1.9876 C.3       1 <0>         0.0000
      9 C9          2.0432    1.4023    0.0030 C.3       1 <0>         0.0000
     10 C10        -1.6165   -0.7787   -0.9585 C.3       1 <0>         0.0000
     11 N1         -0.1665   -3.9199    6.1856 N.pl3     1 <0>         0.0000
     12 O1         -1.3303   -4.3630    6.3403 O.3       1 <0>         0.0000
     13 O2          0.7746   -4.2397    6.9516 O.2       1 <0>         0.0000
     14 O3          1.4463   -1.9247   -0.1105 O.2       1 <0>         0.0000
     15 O4          0.8556   -0.4191    1.9646 O.3       1 <0>         0.0000
     16 O5          0.8996    0.6457   -0.3547 O.3       1 <0>         0.0000
     17 O6         -0.9623   -0.9855    0.2818 O.3       1 <0>         0.0000
     18 P1          0.6399   -0.7644    0.4012 P.3       1 <0>         0.0000
     19 H1         -1.9437   -3.0454    4.3843 H         1 <0>         0.0000
     20 H2          2.1918   -2.8036    5.5862 H         1 <0>         0.0000
     21 H3         -1.4879   -1.4987    2.5212 H         1 <0>         0.0000
     22 H4          2.6390   -1.2578    3.7209 H         1 <0>         0.0000
     23 H5          3.2752   -0.3431    0.3268 H         1 <0>         0.0000
     24 H6          3.3520    0.3149   -1.3252 H         1 <0>         0.0000
     25 H7          4.1863    1.1463   -0.0183 H         1 <0>         0.0000
     26 H8          0.0374   -1.5396   -2.1224 H         1 <0>         0.0000
     27 H9         -1.1767   -2.7643   -1.6820 H         1 <0>         0.0000
     28 H10        -1.5358   -1.6015   -2.9524 H         1 <0>         0.0000
     29 H11         2.0581    2.3208   -0.5911 H         1 <0>         0.0000
     30 H12         1.9761    1.6624    1.0636 H         1 <0>         0.0000
     31 H13        -2.6863   -0.9673   -0.8285 H         1 <0>         0.0000
     32 H14        -1.4705    0.2614   -1.2650 H         1 <0>         0.0000
@<TRIPOS>BOND
     1    1    3 ar
     2    1    5 ar
     3    2    4 ar
     4    2    5 ar
     5    3    6 ar
     6    4    6 ar
     7    5   11 1
     8    6   15 1
     9    7    9 1
    10    8   10 1
    11    9   16 1
    12   10   17 1
    13   11   12 1
    14   11   13 2
    15   14   18 2
    16   15   18 1
    17   16   18 1
    18   17   18 1
    19    1   19 1
    20    2   20 1
    21    3   21 1
    22    4   22 1
    23    7   23 1
    24    7   24 1
    25    7   25 1
    26    8   26 1
    27    8   27 1
    28    8   28 1
    29    9   29 1
    30    9   30 1
    31   10   31 1
    32   10   32 1
@<TRIPOS>MOLECULE
*****
   32    32     0     0     0
SMALL
NO_CHARGES

@<TRIPOS>ATOM
      1 C1          0.4838   -3.5292    3.8688 C.ar      1 <0>         0.0000
      2 C2         -0.0408   -1.6531    5.2979 C.ar      1 <0>         0.0000
      3 C3          0.7393   -2.6538    2.8134 C.ar      1 <0>         0.0000
      4 C4          0.2148   -0.7777    4.2425 C.ar      1 <0>         0.0000
      5 C5          0.0937   -3.0289    5.1111 C.ar      1 <0>         0.0000
      6 C6          0.6048   -1.2781    3.0002 C.ar      1 <0>         0.0000
      7 C7          3.0787    1.0430    0.5347 C.3       1 <0>         0.0000
      8 C8         -1.6581    0.8605    1.6259 C.3       1 <0>         0.0000
      9 C9          2.2277    0.9829   -0.7159 C.3       1 <0>         0.0000
     10 C10        -1.8366    0.1297    0.3122 C.3       1 <0>         0.0000
     11 N1         -0.1667   -3.9198    6.1857 N.pl3     1 <0>         0.0000
     12 O1         -0.0400   -5.1538    5.9969 O.3       1 <0>         0.0000
     13 O2         -0.5168   -3.4487    7.2948 O.2       1 <0>         0.0000
     14 O3          1.4463   -1.9247   -0.1105 O.2       1 <0>         0.0000
     15 O4          0.8556   -0.4191    1.9646 O.3       1 <0>         0.0000
     16 O5          0.8996    0.6457   -0.3547 O.3       1 <0>         0.0000
     17 O6         -0.9623   -0.9855    0.2818 O.3       1 <0>         0.0000
     18 P1          0.6399   -0.7644    0.4012 P.3       1 <0>         0.0000
     19 H1          0.5927   -4.5992    3.7099 H         1 <0>         0.0000
     20 H2         -0.3446   -1.2496    6.2607 H         1 <0>         0.0000
     21 H3          1.0431   -3.0495    1.8481 H         1 <0>         0.0000
     22 H4          0.1079    0.2930    4.3940 H         1 <0>         0.0000
     23 H5          2.7021    1.8013    1.2268 H         1 <0>         0.0000
     24 H6          3.0869    0.0732    1.0430 H         1 <0>         0.0000
     25 H7          4.1180    1.2792    0.2832 H         1 <0>         0.0000
     26 H8         -1.8954    0.2080    2.4707 H         1 <0>         0.0000
     27 H9         -0.6283    1.2168    1.7326 H         1 <0>         0.0000
     28 H10        -2.3059    1.7425    1.6679 H         1 <0>         0.0000
     29 H11         2.6097    0.2226   -1.4038 H         1 <0>         0.0000
     30 H12         2.2200    1.9528   -1.2221 H         1 <0>         0.0000
     31 H13        -1.5978    0.7878   -0.5286 H         1 <0>         0.0000
     32 H14        -2.8658   -0.2263    0.2075 H         1 <0>         0.0000
@<TRIPOS>BOND
     1    1    3 ar
     2    1    5 ar
     3    2    4 ar
     4    2    5 ar
     5    3    6 ar
     6    4    6 ar
     7    5   11 1
     8    6   15 1
     9    7    9 1
    10    8   10 1
    11    9   16 1
    12   10   17 1
    13   11   12 1
    14   11   13 2
    15   14   18 2
    16   15   18 1
    17   16   18 1
    18   17   18 1
    19    1   19 1
    20    2   20 1
    21    3   21 1
    22    4   22 1
    23    7   23 1
    24    7   24 1
    25    7   25 1
    26    8   26 1
    27    8   27 1
    28    8   28 1
    29    9   29 1
    30    9   30 1
    31   10   31 1
    32   10   32 1
@<TRIPOS>MOLECULE
*****
   32    32     0     0     0
SMALL
NO_CHARGES

@<TRIPOS>ATOM
      1 C1         -1.3203    2.4475    2.6608 C.ar      1 <0>         0.0000
      2 C2         -0.1490    1.8279    4.6810 C.ar      1 <0>         0.0000
      3 C3         -0.6793    1.4170    1.9731 C.ar      1 <0>         0.0000
      4 C4          0.4920    0.7974    3.9933 C.ar      1 <0>         0.0000
      5 C5         -1.0551    2.6529    4.0148 C.ar      1 <0>         0.0000
      6 C6          0.2268    0.5920    2.6394 C.ar      1 <0>         0.0000
      7 C7         -0.1849    0.0697   -2.4016 C.3       1 <0>         0.0000
      8 C8         -1.2055   -2.6228    2.0018 C.3       1 <0>         0.0000
      9 C9          1.0649    0.6361   -1.7621 C.3       1 <0>         0.0000
     10 C10        -1.5270   -2.2533    0.5694 C.3       1 <0>         0.0000
     11 N1         -1.7073    3.7020    4.7151 N.pl3     1 <0>         0.0000
     12 O1         -2.5188    4.4330    4.0973 O.3       1 <0>         0.0000
     13 O2         -1.4540    3.8697    5.9326 O.2       1 <0>         0.0000
     14 O3          1.4463   -1.9247   -0.1105 O.2       1 <0>         0.0000
     15 O4          0.8556   -0.4191    1.9646 O.3       1 <0>         0.0000
     16 O5          0.8996    0.6457   -0.3547 O.3       1 <0>         0.0000
     17 O6         -0.9623   -0.9855    0.2818 O.3       1 <0>         0.0000
     18 P1          0.6399   -0.7644    0.4012 P.3       1 <0>         0.0000
     19 H1         -2.0246    3.0831    2.1297 H         1 <0>         0.0000
     20 H2          0.0674    1.9771    5.7360 H         1 <0>         0.0000
     21 H3         -0.8902    1.2617    0.9185 H         1 <0>         0.0000
     22 H4          1.1971    0.1582    4.5177 H         1 <0>         0.0000
     23 H5         -0.3658   -0.9547   -2.0645 H         1 <0>         0.0000
     24 H6         -1.0574    0.6829   -2.1532 H         1 <0>         0.0000
     25 H7         -0.0948    0.0718   -3.4929 H         1 <0>         0.0000
     26 H8         -0.1245   -2.6789    2.1571 H         1 <0>         0.0000
     27 H9         -1.6244   -1.8850    2.6940 H         1 <0>         0.0000
     28 H10        -1.6501   -3.5897    2.2599 H         1 <0>         0.0000
     29 H11         1.2400    1.6607   -2.1034 H         1 <0>         0.0000
     30 H12         1.9355    0.0218   -2.0106 H         1 <0>         0.0000
     31 H13        -2.6095   -2.1989    0.4208 H         1 <0>         0.0000
     32 H14        -1.1071   -2.9910   -0.1209 H         1 <0>         0.0000
@<TRIPOS>BOND
     1    1    3 ar
     2    1    5 ar
     3    2    4 ar
     4    2    5 ar
     5    3    6 ar
     6    4    6 ar
     7    5   11 1
     8    6   15 1
     9    7    9 1
    10    8   10 1
    11    9   16 1
    12   10   17 1
    13   11   12 1
    14   11   13 2
    15   14   18 2
    16   15   18 1
    17   16   18 1
    18   17   18 1
    19    1   19 1
    20    2   20 1
    21    3   21 1
    22    4   22 1
    23    7   23 1
    24    7   24 1
    25    7   25 1
    26    8   26 1
    27    8   27 1
    28    8   28 1
    29    9   29 1
    30    9   30 1
    31   10   31 1
    32   10   32 1
@<TRIPOS>MOLECULE
*****
   32    32     0     0     0
SMALL
NO_CHARGES

@<TRIPOS>ATOM
      1 C1         -0.2488    2.9446    2.9143 C.ar      1 <0>         0.0000
      2 C2         -1.2204    1.3309    4.4273 C.ar      1 <0>         0.0000
      3 C3          0.3921    1.9141    2.2267 C.ar      1 <0>         0.0000
      4 C4         -0.5794    0.3003    3.7397 C.ar      1 <0>         0.0000
      5 C5         -1.0550    2.6530    4.0147 C.ar      1 <0>         0.0000
      6 C6          0.2268    0.5920    2.6394 C.ar      1 <0>         0.0000
      7 C7          1.2927    2.0538   -2.2415 C.3       1 <0>         0.0000
      8 C8         -3.2636   -0.3588    0.1832 C.3       1 <0>         0.0000
      9 C9          1.0649    0.6361   -1.7621 C.3       1 <0>         0.0000
     10 C10        -1.8366    0.1297    0.3122 C.3       1 <0>         0.0000
     11 N1         -1.7075    3.7019    4.7150 N.pl3     1 <0>         0.0000
     12 O1         -1.5456    4.8844    4.3278 O.3       1 <0>         0.0000
     13 O2         -2.4279    3.4177    5.7024 O.2       1 <0>         0.0000
     14 O3          1.4463   -1.9247   -0.1105 O.2       1 <0>         0.0000
     15 O4          0.8556   -0.4191    1.9646 O.3       1 <0>         0.0000
     16 O5          0.8996    0.6457   -0.3547 O.3       1 <0>         0.0000
     17 O6         -0.9623   -0.9855    0.2818 O.3       1 <0>         0.0000
     18 P1          0.6399   -0.7644    0.4012 P.3       1 <0>         0.0000
     19 H1         -0.1118    3.9707    2.5821 H         1 <0>         0.0000
     20 H2         -1.8454    1.0895    5.2836 H         1 <0>         0.0000
     21 H3          1.0186    2.1474    1.3701 H         1 <0>         0.0000
     22 H4         -0.7118   -0.7276    4.0661 H         1 <0>         0.0000
     23 H5          0.4390    2.6911   -1.9948 H         1 <0>         0.0000
     24 H6          2.1932    2.4762   -1.7836 H         1 <0>         0.0000
     25 H7          1.4473    2.0744   -3.3254 H         1 <0>         0.0000
     26 H8         -3.4100   -0.8912   -0.7607 H         1 <0>         0.0000
     27 H9         -3.5184   -1.0292    1.0105 H         1 <0>         0.0000
     28 H10        -3.9645    0.4815    0.2271 H         1 <0>         0.0000
     29 H11         1.9223    0.0041   -2.0120 H         1 <0>         0.0000
     30 H12         0.1644    0.2159   -2.2200 H         1 <0>         0.0000
     31 H13        -1.6970    0.6613    1.2582 H         1 <0>         0.0000
     32 H14        -1.5835    0.7988   -0.5156 H         1 <0>         0.0000
@<TRIPOS>BOND
     1    1    3 ar
     2    1    5 ar
     3    2    4 ar
     4    2    5 ar
     5    3    6 ar
     6    4    6 ar
     7    5   11 1
     8    6   15 1
     9    7    9 1
    10    8   10 1
    11    9   16 1
    12   10   17 1
    13   11   12 1
    14   11   13 2
    15   14   18 2
    16   15   18 1
    17   16   18 1
    18   17   18 1
    19    1   19 1
    20    2   20 1
    21    3   21 1
    22    4   22 1
    23    7   23 1
    24    7   24 1
    25    7   25 1
    26    8   26 1
    27    8   27 1
    28    8   28 1
    29    9   29 1
    30    9   30 1
    31   10   31 1
    32   10   32 1
@<TRIPOS>MOLECULE
*****
   32    32     0     0     0
SMALL
NO_CHARGES

@<TRIPOS>ATOM
      1 C1         -1.8059    1.6405    3.4174 C.ar      1 <0>         0.0000
      2 C2          0.3368    2.6347    3.9247 C.ar      1 <0>         0.0000
      3 C3         -1.1650    0.6101    2.7296 C.ar      1 <0>         0.0000
      4 C4          0.9777    1.6043    3.2369 C.ar      1 <0>         0.0000
      5 C5         -1.0550    2.6529    4.0149 C.ar      1 <0>         0.0000
      6 C6          0.2268    0.5920    2.6394 C.ar      1 <0>         0.0000
      7 C7          2.2245    2.3317   -1.4032 C.3       1 <0>         0.0000
      8 C8         -0.9608   -2.4462   -1.6064 C.3       1 <0>         0.0000
      9 C9          2.2277    0.9829   -0.7159 C.3       1 <0>         0.0000
     10 C10        -1.5563   -1.1996   -0.9873 C.3       1 <0>         0.0000
     11 N1         -1.7072    3.7021    4.7149 N.pl3     1 <0>         0.0000
     12 O1         -2.9601    3.7000    4.7844 O.3       1 <0>         0.0000
     13 O2         -1.0129    4.6031    5.2448 O.2       1 <0>         0.0000
     14 O3          1.4463   -1.9247   -0.1105 O.2       1 <0>         0.0000
     15 O4          0.8556   -0.4191    1.9646 O.3       1 <0>         0.0000
     16 O5          0.8996    0.6457   -0.3547 O.3       1 <0>         0.0000
     17 O6         -0.9623   -0.9855    0.2818 O.3       1 <0>         0.0000
     18 P1          0.6399   -0.7644    0.4012 P.3       1 <0>         0.0000
     19 H1         -2.8914    1.6425    3.4805 H         1 <0>         0.0000
     20 H2          0.9343    3.4177    4.3853 H         1 <0>         0.0000
     21 H3         -1.7553   -0.1759    2.2665 H         1 <0>         0.0000
     22 H4          2.0622    1.5958    3.1697 H         1 <0>         0.0000
     23 H5          1.6123    2.3067   -2.3089 H         1 <0>         0.0000
     24 H6          1.8340    3.1051   -0.7337 H         1 <0>         0.0000
     25 H7          3.2431    2.6294   -1.6734 H         1 <0>         0.0000
     26 H8          0.1190   -2.3376   -1.7404 H         1 <0>         0.0000
     27 H9         -1.1527   -3.3201   -0.9752 H         1 <0>         0.0000
     28 H10        -1.4189   -2.6500   -2.5799 H         1 <0>         0.0000
     29 H11         2.8418    1.0147    0.1891 H         1 <0>         0.0000
     30 H12         2.6174    0.2112   -1.3864 H         1 <0>         0.0000
     31 H13        -2.6363   -1.3147   -0.8560 H         1 <0>         0.0000
     32 H14        -1.3629   -0.3273   -1.6187 H         1 <0>         0.0000
@<TRIPOS>BOND
     1    1    3 ar
     2    1    5 ar
     3    2    4 ar
     4    2    5 ar
     5    3    6 ar
     6    4    6 ar
     7    5   11 1
     8    6   15 1
     9    7    9 1
    10    8   10 1
    11    9   16 1
    12   10   17 1
    13   11   12 1
    14   11   13 2
    15   14   18 2
    16   15   18 1
    17   16   18 1
    18   17   18 1
    19    1   19 1
    20    2   20 1
    21    3   21 1
    22    4   22 1
    23    7   23 1
    24    7   24 1
    25    7   25 1
    26    8   26 1
    27    8   27 1
    28    8   28 1
    29    9   29 1
    30    9   30 1
    31   10   31 1
    32   10   32 1
@<TRIPOS>MOLECULE
*****
   32    32     0     0     0
SMALL
NO_CHARGES

@<TRIPOS>ATOM
      1 C1          4.3497   -0.5877    3.0599 C.ar      1 <0>         0.0000
      2 C2          3.4012    1.5255    3.7466 C.ar      1 <0>         0.0000
      3 C3          3.1326   -0.9456    2.4801 C.ar      1 <0>         0.0000
      4 C4          2.1841    1.1676    3.1668 C.ar      1 <0>         0.0000
      5 C5          4.4840    0.6478    3.6932 C.ar      1 <0>         0.0000
      6 C6          2.0498   -0.0680    2.5336 C.ar      1 <0>         0.0000
      7 C7         -0.1849    0.0697   -2.4016 C.3       1 <0>         0.0000
      8 C8         -1.6472    1.2515    0.7566 C.3       1 <0>         0.0000
      9 C9          1.0649    0.6361   -1.7621 C.3       1 <0>         0.0000
     10 C10        -1.8462   -0.2145    1.0776 C.3       1 <0>         0.0000
     11 N1          5.7228    1.0124    4.2837 N.pl3     1 <0>         0.0000
     12 O1          6.6845    0.2085    4.2248 O.3       1 <0>         0.0000
     13 O2          5.8220    2.1284    4.8488 O.2       1 <0>         0.0000
     14 O3          1.4463   -1.9247   -0.1105 O.2       1 <0>         0.0000
     15 O4          0.8556   -0.4191    1.9646 O.3       1 <0>         0.0000
     16 O5          0.8996    0.6457   -0.3547 O.3       1 <0>         0.0000
     17 O6         -0.9623   -0.9855    0.2818 O.3       1 <0>         0.0000
     18 P1          0.6399   -0.7644    0.4012 P.3       1 <0>         0.0000
     19 H1          5.1859   -1.2810    3.0109 H         1 <0>         0.0000
     20 H2          3.4919    2.4914    4.2375 H         1 <0>         0.0000
     21 H3          3.0342   -1.9094    1.9879 H         1 <0>         0.0000
     22 H4          1.3441    1.8554    3.2120 H         1 <0>         0.0000
     23 H5         -0.3658   -0.9547   -2.0645 H         1 <0>         0.0000
     24 H6         -1.0574    0.6829   -2.1532 H         1 <0>         0.0000
     25 H7         -0.0948    0.0718   -3.4929 H         1 <0>         0.0000
     26 H8         -0.6215    1.5626    0.9730 H         1 <0>         0.0000
     27 H9         -1.8610    1.4479   -0.2991 H         1 <0>         0.0000
     28 H10        -2.3351    1.8712    1.3413 H         1 <0>         0.0000
     29 H11         1.2400    1.6607   -2.1034 H         1 <0>         0.0000
     30 H12         1.9355    0.0218   -2.0106 H         1 <0>         0.0000
     31 H13        -2.8740   -0.5192    0.8590 H         1 <0>         0.0000
     32 H14        -1.6314   -0.4092    2.1326 H         1 <0>         0.0000
@<TRIPOS>BOND
     1    1    3 ar
     2    1    5 ar
     3    2    4 ar
     4    2    5 ar
     5    3    6 ar
     6    4    6 ar
     7    5   11 1
     8    6   15 1
     9    7    9 1
    10    8   10 1
    11    9   16 1
    12   10   17 1
    13   11   12 1
    14   11   13 2
    15   14   18 2
    16   15   18 1
    17   16   18 1
    18   17   18 1
    19    1   19 1
    20    2   20 1
    21    3   21 1
    22    4   22 1
    23    7   23 1
    24    7   24 1
    25    7   25 1
    26    8   26 1
    27    8   27 1
    28    8   28 1
    29    9   29 1
    30    9   30 1
    31   10   31 1
    32   10   32 1
