@<TRIPOS>MOLECULE
*****
   32    32     0     0     0
SMALL
NO_CHARGES

@<TRIPOS>ATOM
      1 C1         47.4690   -8.5437   33.5410 C.ar      1 <0>         0.0000
      2 C2         45.0704   -8.3047   33.3785 C.ar      1 <0>         0.0000
      3 C3         47.5738   -8.4357   32.1543 C.ar      1 <0>         0.0000
      4 C4         45.1752   -8.1966   31.9918 C.ar      1 <0>         0.0000
      5 C5         46.2173   -8.4783   34.1531 C.ar      1 <0>         0.0000
      6 C6         46.4269   -8.2621   31.3797 C.ar      1 <0>         0.0000
      7 C7         44.2084   -9.0677   28.3149 C.3       1 <0>         0.0000
      8 C8         50.1298  -11.4286   30.4521 C.3       1 <0>         0.0000
      9 C9         44.9717  -10.3528   28.0750 C.3       1 <0>         0.0000
     10 C10        49.0725  -11.0436   29.4395 C.3       1 <0>         0.0000
     11 N1         46.1103   -8.5885   35.5648 N.pl3     1 <0>         0.0000
     12 O1         47.1542   -8.7443   36.2435 O.3       1 <0>         0.0000
     13 O2         44.9747   -8.5275   36.0951 O.2       1 <0>         0.0000
     14 O3         47.5891   -8.7916   27.6964 O.2       1 <0>         0.0000
     15 O4         46.5298   -8.1559   30.0192 O.3       1 <0>         0.0000
     16 O5         46.0213  -10.4499   29.0221 O.3       1 <0>         0.0000
     17 O6         48.3532   -9.9234   29.9263 O.3       1 <0>         0.0000
     18 P1         47.1496   -9.2864   29.0456 P.3       1 <0>         0.0000
     19 H1         48.3709   -8.6784   34.1331 H         1 <0>         0.0000
     20 H2         44.0885   -8.2525   33.8424 H         1 <0>         0.0000
     21 H3         48.5517   -8.4871   31.6833 H         1 <0>         0.0000
     22 H4         44.2780   -8.0618   31.3937 H         1 <0>         0.0000
     23 H5         43.7750   -9.0529   29.3188 H         1 <0>         0.0000
     24 H6         44.8671   -8.2004   28.2014 H         1 <0>         0.0000
     25 H7         43.4036   -8.9541   27.5810 H         1 <0>         0.0000
     26 H8         50.8324  -10.6065   30.6146 H         1 <0>         0.0000
     27 H9         49.6691  -11.6943   31.4092 H         1 <0>         0.0000
     28 H10        50.6874  -12.3078   30.1125 H         1 <0>         0.0000
     29 H11        45.4026  -10.3611   27.0693 H         1 <0>         0.0000
     30 H12        44.3123  -11.2182   28.1895 H         1 <0>         0.0000
     31 H13        48.3733  -11.8700   29.2816 H         1 <0>         0.0000
     32 H14        49.5346  -10.7775   28.4841 H         1 <0>         0.0000
@<TRIPOS>BOND
     1    1    3 ar
     2    1    5 ar
     3    2    4 ar
     4    2    5 ar
     5    3    6 ar
     6    4    6 ar
     7    5   11 1
     8    6   15 1
     9    7    9 1
    10    8   10 1
    11    9   16 1
    12   10   17 1
    13   11   12 1
    14   11   13 2
    15   14   18 2
    16   15   18 1
    17   16   18 1
    18   17   18 1
    19    1   19 1
    20    2   20 1
    21    3   21 1
    22    4   22 1
    23    7   23 1
    24    7   24 1
    25    7   25 1
    26    8   26 1
    27    8   27 1
    28    8   28 1
    29    9   29 1
    30    9   30 1
    31   10   31 1
    32   10   32 1
@<TRIPOS>MOLECULE
*****
   32    32     0     0     0
SMALL
NO_CHARGES

@<TRIPOS>ATOM
      1 C1         46.7524   -8.9835   33.8568 C.ar      1 <0>         0.0000
      2 C2         44.6755   -8.2164   32.8897 C.ar      1 <0>         0.0000
      3 C3         47.4254   -8.6390   32.6847 C.ar      1 <0>         0.0000
      4 C4         45.3486   -7.8718   31.7176 C.ar      1 <0>         0.0000
      5 C5         45.3773   -8.7723   33.9593 C.ar      1 <0>         0.0000
      6 C6         46.7235   -8.0832   31.6151 C.ar      1 <0>         0.0000
      7 C7         43.9832   -9.1732   27.7860 C.3       1 <0>         0.0000
      8 C8         49.2895  -12.2088   29.9147 C.3       1 <0>         0.0000
      9 C9         45.3186   -8.4847   27.9710 C.3       1 <0>         0.0000
     10 C10        48.6040  -11.1630   29.0615 C.3       1 <0>         0.0000
     11 N1         44.6918   -9.1230   35.1524 N.pl3     1 <0>         0.0000
     12 O1         45.3416   -9.6219   36.1029 O.3       1 <0>         0.0000
     13 O2         43.4547   -8.9249   35.2234 O.2       1 <0>         0.0000
     14 O3         48.3672   -8.1233   28.0543 O.2       1 <0>         0.0000
     15 O4         47.3840   -7.7451   30.4651 O.3       1 <0>         0.0000
     16 O5         46.1204   -9.2598   28.8453 O.3       1 <0>         0.0000
     17 O6         48.3422  -10.0184   29.8557 O.3       1 <0>         0.0000
     18 P1         47.6091   -8.7276   29.2026 P.3       1 <0>         0.0000
     19 H1         47.3114   -9.4156   34.6832 H         1 <0>         0.0000
     20 H2         43.6035   -8.0468   32.9558 H         1 <0>         0.0000
     21 H3         48.4966   -8.8057   32.6109 H         1 <0>         0.0000
     22 H4         44.7963   -7.4396   30.8876 H         1 <0>         0.0000
     23 H5         44.1139  -10.1675   27.3501 H         1 <0>         0.0000
     24 H6         43.4643   -9.2730   28.7449 H         1 <0>         0.0000
     25 H7         43.3325   -8.5834   27.1319 H         1 <0>         0.0000
     26 H8         50.2381  -11.8319   30.3070 H         1 <0>         0.0000
     27 H9         48.6507  -12.5011   30.7546 H         1 <0>         0.0000
     28 H10        49.4835  -13.1155   29.3320 H         1 <0>         0.0000
     29 H11        45.1809   -7.4908   28.4073 H         1 <0>         0.0000
     30 H12        45.8362   -8.3865   27.0121 H         1 <0>         0.0000
     31 H13        47.6561  -11.5462   28.6723 H         1 <0>         0.0000
     32 H14        49.2439  -10.8714   28.2233 H         1 <0>         0.0000
@<TRIPOS>BOND
     1    1    3 ar
     2    1    5 ar
     3    2    4 ar
     4    2    5 ar
     5    3    6 ar
     6    4    6 ar
     7    5   11 1
     8    6   15 1
     9    7    9 1
    10    8   10 1
    11    9   16 1
    12   10   17 1
    13   11   12 1
    14   11   13 2
    15   14   18 2
    16   15   18 1
    17   16   18 1
    18   17   18 1
    19    1   19 1
    20    2   20 1
    21    3   21 1
    22    4   22 1
    23    7   23 1
    24    7   24 1
    25    7   25 1
    26    8   26 1
    27    8   27 1
    28    8   28 1
    29    9   29 1
    30    9   30 1
    31   10   31 1
    32   10   32 1
@<TRIPOS>MOLECULE
*****
   32    32     0     0     0
SMALL
NO_CHARGES

@<TRIPOS>ATOM
      1 C1         47.2524   -8.9835   33.8568 C.ar      1 <0>         0.0000
      2 C2         45.1755   -8.2164   32.8897 C.ar      1 <0>         0.0000
      3 C3         47.9254   -8.6390   32.6847 C.ar      1 <0>         0.0000
      4 C4         45.8486   -7.8718   31.7176 C.ar      1 <0>         0.0000
      5 C5         45.8773   -8.7723   33.9593 C.ar      1 <0>         0.0000
      6 C6         47.2235   -8.0832   31.6151 C.ar      1 <0>         0.0000
      7 C7         44.4832   -9.1732   27.7860 C.3       1 <0>         0.0000
      8 C8         49.7895  -12.2088   29.9147 C.3       1 <0>         0.0000
      9 C9         45.8186   -8.4847   27.9710 C.3       1 <0>         0.0000
     10 C10        49.1040  -11.1630   29.0615 C.3       1 <0>         0.0000
     11 N1         45.1918   -9.1230   35.1524 N.pl3     1 <0>         0.0000
     12 O1         45.8416   -9.6219   36.1029 O.3       1 <0>         0.0000
     13 O2         43.9547   -8.9249   35.2234 O.2       1 <0>         0.0000
     14 O3         48.8672   -8.1233   28.0543 O.2       1 <0>         0.0000
     15 O4         47.8840   -7.7451   30.4651 O.3       1 <0>         0.0000
     16 O5         46.6204   -9.2598   28.8453 O.3       1 <0>         0.0000
     17 O6         48.8422  -10.0184   29.8557 O.3       1 <0>         0.0000
     18 P1         48.1091   -8.7276   29.2026 P.3       1 <0>         0.0000
     19 H1         47.8114   -9.4156   34.6832 H         1 <0>         0.0000
     20 H2         44.1035   -8.0468   32.9558 H         1 <0>         0.0000
     21 H3         48.9966   -8.8057   32.6109 H         1 <0>         0.0000
     22 H4         45.2963   -7.4396   30.8876 H         1 <0>         0.0000
     23 H5         44.6139  -10.1675   27.3501 H         1 <0>         0.0000
     24 H6         43.9643   -9.2730   28.7449 H         1 <0>         0.0000
     25 H7         43.8325   -8.5834   27.1319 H         1 <0>         0.0000
     26 H8         50.7381  -11.8319   30.3070 H         1 <0>         0.0000
     27 H9         49.1507  -12.5011   30.7546 H         1 <0>         0.0000
     28 H10        49.9835  -13.1155   29.3320 H         1 <0>         0.0000
     29 H11        45.6809   -7.4908   28.4073 H         1 <0>         0.0000
     30 H12        46.3362   -8.3865   27.0121 H         1 <0>         0.0000
     31 H13        48.1561  -11.5462   28.6723 H         1 <0>         0.0000
     32 H14        49.7439  -10.8714   28.2233 H         1 <0>         0.0000
@<TRIPOS>BOND
     1    1    3 ar
     2    1    5 ar
     3    2    4 ar
     4    2    5 ar
     5    3    6 ar
     6    4    6 ar
     7    5   11 1
     8    6   15 1
     9    7    9 1
    10    8   10 1
    11    9   16 1
    12   10   17 1
    13   11   12 1
    14   11   13 2
    15   14   18 2
    16   15   18 1
    17   16   18 1
    18   17   18 1
    19    1   19 1
    20    2   20 1
    21    3   21 1
    22    4   22 1
    23    7   23 1
    24    7   24 1
    25    7   25 1
    26    8   26 1
    27    8   27 1
    28    8   28 1
    29    9   29 1
    30    9   30 1
    31   10   31 1
    32   10   32 1
@<TRIPOS>MOLECULE
*****
   32    32     0     0     0
SMALL
NO_CHARGES

@<TRIPOS>ATOM
      1 C1         47.2775   -8.9433   34.3146 C.ar      1 <0>         0.0000
      2 C2         45.0206   -8.6729   33.4960 C.ar      1 <0>         0.0000
      3 C3         47.7752   -8.5199   33.0823 C.ar      1 <0>         0.0000
      4 C4         45.5183   -8.2495   32.2636 C.ar      1 <0>         0.0000
      5 C5         45.9001   -9.0199   34.5214 C.ar      1 <0>         0.0000
      6 C6         46.8956   -8.1730   32.0569 C.ar      1 <0>         0.0000
      7 C7         44.1782   -9.9872   28.4954 C.3       1 <0>         0.0000
      8 C8         50.1479  -11.7444   30.2779 C.3       1 <0>         0.0000
      9 C9         45.3470   -9.0268   28.5516 C.3       1 <0>         0.0000
     10 C10        49.1960  -10.9055   29.4522 C.3       1 <0>         0.0000
     11 N1         45.3932   -9.4510   35.7758 N.pl3     1 <0>         0.0000
     12 O1         46.2012   -9.7586   36.6851 O.3       1 <0>         0.0000
     13 O2         44.1506   -9.5130   35.9406 O.2       1 <0>         0.0000
     14 O3         48.2473   -8.0322   28.3777 O.2       1 <0>         0.0000
     15 O4         47.3841   -7.7575   30.8478 O.3       1 <0>         0.0000
     16 O5         46.3563   -9.5760   29.3809 O.3       1 <0>         0.0000
     17 O6         48.7558   -9.8057   30.2307 O.3       1 <0>         0.0000
     18 P1         47.7201   -8.7282   29.6009 P.3       1 <0>         0.0000
     19 H1         47.9740   -9.2104   35.1056 H         1 <0>         0.0000
     20 H2         43.9447   -8.7285   33.6433 H         1 <0>         0.0000
     21 H3         48.8491   -8.4620   32.9273 H         1 <0>         0.0000
     22 H4         44.8281   -7.9810   31.4685 H         1 <0>         0.0000
     23 H5         44.4848  -10.9511   28.0800 H         1 <0>         0.0000
     24 H6         43.7632  -10.1491   29.4956 H         1 <0>         0.0000
     25 H7         43.3714   -9.5773   27.8787 H         1 <0>         0.0000
     26 H8         51.0209  -11.1598   30.5811 H         1 <0>         0.0000
     27 H9         49.6483  -12.1249   31.1749 H         1 <0>         0.0000
     28 H10        50.4869  -12.6163   29.7086 H         1 <0>         0.0000
     29 H11        45.0336   -8.0647   28.9679 H         1 <0>         0.0000
     30 H12        45.7609   -8.8667   27.5515 H         1 <0>         0.0000
     31 H13        48.3253  -11.4961   29.1523 H         1 <0>         0.0000
     32 H14        49.6969  -10.5254   28.5569 H         1 <0>         0.0000
@<TRIPOS>BOND
     1    1    3 ar
     2    1    5 ar
     3    2    4 ar
     4    2    5 ar
     5    3    6 ar
     6    4    6 ar
     7    5   11 1
     8    6   15 1
     9    7    9 1
    10    8   10 1
    11    9   16 1
    12   10   17 1
    13   11   12 1
    14   11   13 2
    15   14   18 2
    16   15   18 1
    17   16   18 1
    18   17   18 1
    19    1   19 1
    20    2   20 1
    21    3   21 1
    22    4   22 1
    23    7   23 1
    24    7   24 1
    25    7   25 1
    26    8   26 1
    27    8   27 1
    28    8   28 1
    29    9   29 1
    30    9   30 1
    31   10   31 1
    32   10   32 1
@<TRIPOS>MOLECULE
*****
   32    32     0     0     0
SMALL
NO_CHARGES

@<TRIPOS>ATOM
      1 C1         47.4869   -8.9493   34.2470 C.ar      1 <0>         0.0000
      2 C2         45.2232   -8.6396   33.4618 C.ar      1 <0>         0.0000
      3 C3         47.9737   -8.5319   33.0083 C.ar      1 <0>         0.0000
      4 C4         45.7099   -8.2221   32.2231 C.ar      1 <0>         0.0000
      5 C5         46.1116   -9.0032   34.4738 C.ar      1 <0>         0.0000
      6 C6         47.0852   -8.1683   31.9964 C.ar      1 <0>         0.0000
      7 C7         44.2862   -9.9298   28.4718 C.3       1 <0>         0.0000
      8 C8         50.2509  -11.7902   30.1642 C.3       1 <0>         0.0000
      9 C9         45.4717   -8.9892   28.5126 C.3       1 <0>         0.0000
     10 C10        49.3013  -10.9339   29.3539 C.3       1 <0>         0.0000
     11 N1         45.6158   -9.4282   35.7347 N.pl3     1 <0>         0.0000
     12 O1         46.4317   -9.7511   36.6316 O.3       1 <0>         0.0000
     13 O2         44.3749   -9.4698   35.9174 O.2       1 <0>         0.0000
     14 O3         48.3854   -8.0430   28.2982 O.2       1 <0>         0.0000
     15 O4         47.5629   -7.7587   30.7810 O.3       1 <0>         0.0000
     16 O5         46.4835   -9.5568   29.3262 O.3       1 <0>         0.0000
     17 O6         48.8910   -9.8284   30.1406 O.3       1 <0>         0.0000
     18 P1         47.8645   -8.7325   29.5277 P.3       1 <0>         0.0000
     19 H1         48.1902   -9.2296   35.0274 H         1 <0>         0.0000
     20 H2         44.1488   -8.6774   33.6248 H         1 <0>         0.0000
     21 H3         49.0460   -8.4917   32.8377 H         1 <0>         0.0000
     22 H4         45.0128   -7.9406   31.4386 H         1 <0>         0.0000
     23 H5         44.5705  -10.8979   28.0504 H         1 <0>         0.0000
     24 H6         43.8832  -10.0866   29.4777 H         1 <0>         0.0000
     25 H7         43.4775   -9.5053   27.8677 H         1 <0>         0.0000
     26 H8         51.1379  -11.2209   30.4556 H         1 <0>         0.0000
     27 H9         49.7581  -12.1640   31.0677 H         1 <0>         0.0000
     28 H10        50.5670  -12.6665   29.5885 H         1 <0>         0.0000
     29 H11        45.1806   -8.0228   28.9350 H         1 <0>         0.0000
     30 H12        45.8736   -8.8342   27.5069 H         1 <0>         0.0000
     31 H13        48.4165  -11.5092   29.0657 H         1 <0>         0.0000
     32 H14        49.7954  -10.5605   28.4520 H         1 <0>         0.0000
@<TRIPOS>BOND
     1    1    3 ar
     2    1    5 ar
     3    2    4 ar
     4    2    5 ar
     5    3    6 ar
     6    4    6 ar
     7    5   11 1
     8    6   15 1
     9    7    9 1
    10    8   10 1
    11    9   16 1
    12   10   17 1
    13   11   12 1
    14   11   13 2
    15   14   18 2
    16   15   18 1
    17   16   18 1
    18   17   18 1
    19    1   19 1
    20    2   20 1
    21    3   21 1
    22    4   22 1
    23    7   23 1
    24    7   24 1
    25    7   25 1
    26    8   26 1
    27    8   27 1
    28    8   28 1
    29    9   29 1
    30    9   30 1
    31   10   31 1
    32   10   32 1
@<TRIPOS>MOLECULE
*****
   32    32     0     0     0
SMALL
NO_CHARGES

@<TRIPOS>ATOM
      1 C1         46.6914   -8.6814   33.7834 C.ar      1 <0>         0.0000
      2 C2         44.7343   -7.9845   32.5501 C.ar      1 <0>         0.0000
      3 C3         47.4493   -8.6226   32.6139 C.ar      1 <0>         0.0000
      4 C4         45.4922   -7.9257   31.3805 C.ar      1 <0>         0.0000
      5 C5         45.3338   -8.3624   33.7515 C.ar      1 <0>         0.0000
      6 C6         46.8498   -8.2448   31.4126 C.ar      1 <0>         0.0000
      7 C7         44.2342   -9.8883   27.6953 C.3       1 <0>         0.0000
      8 C8         47.9894  -12.4313   28.7052 C.3       1 <0>         0.0000
      9 C9         45.6083   -9.2677   27.8311 C.3       1 <0>         0.0000
     10 C10        49.0048  -11.7334   29.5847 C.3       1 <0>         0.0000
     11 N1         44.5620   -8.4223   34.9418 N.pl3     1 <0>         0.0000
     12 O1         45.1203   -8.7646   36.0121 O.3       1 <0>         0.0000
     13 O2         43.3422   -8.1316   34.8908 O.2       1 <0>         0.0000
     14 O3         48.6674   -9.1020   28.0445 O.2       1 <0>         0.0000
     15 O4         47.5935   -8.1871   30.2651 O.3       1 <0>         0.0000
     16 O5         46.3002   -9.9055   28.8906 O.3       1 <0>         0.0000
     17 O6         48.4000  -10.5951   30.1743 O.3       1 <0>         0.0000
     18 P1         47.8057   -9.4138   29.2355 P.3       1 <0>         0.0000
     19 H1         47.1711   -8.9770   34.7133 H         1 <0>         0.0000
     20 H2         43.6770   -7.7338   32.5107 H         1 <0>         0.0000
     21 H3         48.5064   -8.8720   32.6451 H         1 <0>         0.0000
     22 H4         45.0194   -7.6311   30.4476 H         1 <0>         0.0000
     23 H5         44.3086  -10.9559   27.4707 H         1 <0>         0.0000
     24 H6         43.6600   -9.7605   28.6188 H         1 <0>         0.0000
     25 H7         43.6667   -9.3981   26.8973 H         1 <0>         0.0000
     26 H8         47.1257  -12.7590   29.2906 H         1 <0>         0.0000
     27 H9         47.6441  -11.7634   27.9092 H         1 <0>         0.0000
     28 H10        48.4366  -13.3036   28.2170 H         1 <0>         0.0000
     29 H11        45.5268   -8.2000   28.0557 H         1 <0>         0.0000
     30 H12        46.1810   -9.3970   26.9079 H         1 <0>         0.0000
     31 H13        49.8659  -11.4083   28.9931 H         1 <0>         0.0000
     32 H14        49.3480  -12.4019   30.3798 H         1 <0>         0.0000
@<TRIPOS>BOND
     1    1    3 ar
     2    1    5 ar
     3    2    4 ar
     4    2    5 ar
     5    3    6 ar
     6    4    6 ar
     7    5   11 1
     8    6   15 1
     9    7    9 1
    10    8   10 1
    11    9   16 1
    12   10   17 1
    13   11   12 1
    14   11   13 2
    15   14   18 2
    16   15   18 1
    17   16   18 1
    18   17   18 1
    19    1   19 1
    20    2   20 1
    21    3   21 1
    22    4   22 1
    23    7   23 1
    24    7   24 1
    25    7   25 1
    26    8   26 1
    27    8   27 1
    28    8   28 1
    29    9   29 1
    30    9   30 1
    31   10   31 1
    32   10   32 1
@<TRIPOS>MOLECULE
*****
   32    32     0     0     0
SMALL
NO_CHARGES

@<TRIPOS>ATOM
      1 C1         47.2716   -8.5646   34.2349 C.ar      1 <0>         0.0000
      2 C2         45.0459   -8.3564   33.3186 C.ar      1 <0>         0.0000
      3 C3         47.8140   -8.2994   32.9775 C.ar      1 <0>         0.0000
      4 C4         45.5883   -8.0911   32.0612 C.ar      1 <0>         0.0000
      5 C5         45.8874   -8.5932   34.4054 C.ar      1 <0>         0.0000
      6 C6         46.9724   -8.0626   31.8907 C.ar      1 <0>         0.0000
      7 C7         44.3255  -10.2429   28.4849 C.3       1 <0>         0.0000
      8 C8         48.6932  -11.7876   28.8380 C.3       1 <0>         0.0000
      9 C9         45.5113   -9.3022   28.4639 C.3       1 <0>         0.0000
     10 C10        49.6244  -10.8737   29.6058 C.3       1 <0>         0.0000
     11 N1         45.3349   -8.8633   35.6853 N.pl3     1 <0>         0.0000
     12 O1         46.1093   -9.0737   36.6499 O.3       1 <0>         0.0000
     13 O2         44.0870   -8.8847   35.8166 O.2       1 <0>         0.0000
     14 O3         48.4351   -8.3837   28.2657 O.2       1 <0>         0.0000
     15 O4         47.5048   -7.8023   30.6571 O.3       1 <0>         0.0000
     16 O5         46.4843   -9.7653   29.3842 O.3       1 <0>         0.0000
     17 O6         48.8524   -9.9319   30.3312 O.3       1 <0>         0.0000
     18 P1         47.8579   -8.9201   29.5454 P.3       1 <0>         0.0000
     19 H1         47.9388   -8.7471   35.0738 H         1 <0>         0.0000
     20 H2         43.9652   -8.3761   33.4372 H         1 <0>         0.0000
     21 H3         48.8930   -8.2782   32.8510 H         1 <0>         0.0000
     22 H4         44.9275   -7.9079   31.2183 H         1 <0>         0.0000
     23 H5         44.6247  -11.2545   28.1967 H         1 <0>         0.0000
     24 H6         43.8779  -10.2776   29.4835 H         1 <0>         0.0000
     25 H7         43.5458   -9.8962   27.7986 H         1 <0>         0.0000
     26 H8         48.0302  -12.3298   29.5180 H         1 <0>         0.0000
     27 H9         48.0836  -11.2134   28.1327 H         1 <0>         0.0000
     28 H10        49.2639  -12.5127   28.2484 H         1 <0>         0.0000
     29 H11        45.2053   -8.2923   28.7530 H         1 <0>         0.0000
     30 H12        45.9578   -9.2693   27.4656 H         1 <0>         0.0000
     31 H13        50.2847  -10.3346   28.9199 H         1 <0>         0.0000
     32 H14        50.2321  -11.4490   30.3106 H         1 <0>         0.0000
@<TRIPOS>BOND
     1    1    3 ar
     2    1    5 ar
     3    2    4 ar
     4    2    5 ar
     5    3    6 ar
     6    4    6 ar
     7    5   11 1
     8    6   15 1
     9    7    9 1
    10    8   10 1
    11    9   16 1
    12   10   17 1
    13   11   12 1
    14   11   13 2
    15   14   18 2
    16   15   18 1
    17   16   18 1
    18   17   18 1
    19    1   19 1
    20    2   20 1
    21    3   21 1
    22    4   22 1
    23    7   23 1
    24    7   24 1
    25    7   25 1
    26    8   26 1
    27    8   27 1
    28    8   28 1
    29    9   29 1
    30    9   30 1
    31   10   31 1
    32   10   32 1
@<TRIPOS>MOLECULE
*****
   32    32     0     0     0
SMALL
NO_CHARGES

@<TRIPOS>ATOM
      1 C1         47.4403   -8.9517   34.2499 C.ar      1 <0>         0.0000
      2 C2         45.2557   -8.5356   33.3060 C.ar      1 <0>         0.0000
      3 C3         48.0334   -8.5633   33.0487 C.ar      1 <0>         0.0000
      4 C4         45.8487   -8.1471   32.1047 C.ar      1 <0>         0.0000
      5 C5         46.0514   -8.9380   34.3786 C.ar      1 <0>         0.0000
      6 C6         47.2376   -8.1610   31.9761 C.ar      1 <0>         0.0000
      7 C7         44.6129   -9.7984   28.2626 C.3       1 <0>         0.0000
      8 C8         48.8992  -11.5694   28.5443 C.3       1 <0>         0.0000
      9 C9         45.8369   -8.9163   28.3870 C.3       1 <0>         0.0000
     10 C10        49.8424  -10.7964   29.4413 C.3       1 <0>         0.0000
     11 N1         45.4474   -9.3335   35.6013 N.pl3     1 <0>         0.0000
     12 O1         46.1811   -9.6921   36.5540 O.3       1 <0>         0.0000
     13 O2         44.1962   -9.3141   35.6956 O.2       1 <0>         0.0000
     14 O3         48.8011   -8.1133   28.3795 O.2       1 <0>         0.0000
     15 O4         47.8195   -7.7798   30.7976 O.3       1 <0>         0.0000
     16 O5         46.7597   -9.5291   29.2706 O.3       1 <0>         0.0000
     17 O6         49.0873   -9.9139   30.2538 O.3       1 <0>         0.0000
     18 P1         48.1614   -8.7719   29.5692 P.3       1 <0>         0.0000
     19 H1         48.0721   -9.2627   35.0784 H         1 <0>         0.0000
     20 H2         44.1719   -8.5207   33.3923 H         1 <0>         0.0000
     21 H3         49.1158   -8.5758   32.9546 H         1 <0>         0.0000
     22 H4         45.2235   -7.8352   31.2726 H         1 <0>         0.0000
     23 H5         44.8789  -10.7808   27.8629 H         1 <0>         0.0000
     24 H6         44.1325   -9.9316   29.2375 H         1 <0>         0.0000
     25 H7         43.8707   -9.3375   27.6025 H         1 <0>         0.0000
     26 H8         48.1927  -12.1583   29.1360 H         1 <0>         0.0000
     27 H9         48.3368  -10.8883   27.8971 H         1 <0>         0.0000
     28 H10        49.4578  -12.2440   27.8871 H         1 <0>         0.0000
     29 H11        45.5639   -7.9352   28.7873 H         1 <0>         0.0000
     30 H12        46.3161   -8.7848   27.4123 H         1 <0>         0.0000
     31 H13        50.5462  -10.2097   28.8433 H         1 <0>         0.0000
     32 H14        50.4028  -11.4783   30.0877 H         1 <0>         0.0000
@<TRIPOS>BOND
     1    1    3 ar
     2    1    5 ar
     3    2    4 ar
     4    2    5 ar
     5    3    6 ar
     6    4    6 ar
     7    5   11 1
     8    6   15 1
     9    7    9 1
    10    8   10 1
    11    9   16 1
    12   10   17 1
    13   11   12 1
    14   11   13 2
    15   14   18 2
    16   15   18 1
    17   16   18 1
    18   17   18 1
    19    1   19 1
    20    2   20 1
    21    3   21 1
    22    4   22 1
    23    7   23 1
    24    7   24 1
    25    7   25 1
    26    8   26 1
    27    8   27 1
    28    8   28 1
    29    9   29 1
    30    9   30 1
    31   10   31 1
    32   10   32 1
@<TRIPOS>MOLECULE
*****
   32    32     0     0     0
SMALL
NO_CHARGES

@<TRIPOS>ATOM
      1 C1         48.0241   -8.5429   33.4763 C.ar      1 <0>         0.0000
      2 C2         45.6247   -8.7907   33.6120 C.ar      1 <0>         0.0000
      3 C3         47.9253   -8.3401   32.0998 C.ar      1 <0>         0.0000
      4 C4         45.5259   -8.5877   32.2355 C.ar      1 <0>         0.0000
      5 C5         46.8738   -8.7683   34.2324 C.ar      1 <0>         0.0000
      6 C6         46.6762   -8.3624   31.4795 C.ar      1 <0>         0.0000
      7 C7         44.2810   -9.4354   28.6377 C.3       1 <0>         0.0000
      8 C8         50.7762  -10.6497   29.8803 C.3       1 <0>         0.0000
      9 C9         45.2439  -10.5223   28.2094 C.3       1 <0>         0.0000
     10 C10        49.5420  -10.4341   29.0307 C.3       1 <0>         0.0000
     11 N1         46.9740   -8.9751   35.6336 N.pl3     1 <0>         0.0000
     12 O1         48.1071   -8.9513   36.1724 O.3       1 <0>         0.0000
     13 O2         45.9268   -9.1766   36.2950 O.2       1 <0>         0.0000
     14 O3         47.4331   -8.4409   27.6559 O.2       1 <0>         0.0000
     15 O4         46.5793   -8.1632   30.1289 O.3       1 <0>         0.0000
     16 O5         46.4057  -10.4546   29.0179 O.3       1 <0>         0.0000
     17 O6         48.6862   -9.5129   29.6852 O.3       1 <0>         0.0000
     18 P1         47.2774   -9.0882   29.0032 P.3       1 <0>         0.0000
     19 H1         49.0038   -8.5227   33.9474 H         1 <0>         0.0000
     20 H2         44.7200   -8.9657   34.1892 H         1 <0>         0.0000
     21 H3         48.8249   -8.1647   31.5161 H         1 <0>         0.0000
     22 H4         44.5500   -8.6066   31.7579 H         1 <0>         0.0000
     23 H5         43.9868   -9.5645   29.6830 H         1 <0>         0.0000
     24 H6         44.7367   -8.4470   28.5181 H         1 <0>         0.0000
     25 H7         43.3816   -9.4487   28.0132 H         1 <0>         0.0000
     26 H8         51.3190   -9.7116   30.0253 H         1 <0>         0.0000
     27 H9         50.5042  -11.0560   30.8600 H         1 <0>         0.0000
     28 H10        51.4465  -11.3766   29.4095 H         1 <0>         0.0000
     29 H11        45.5342  -10.3873   27.1632 H         1 <0>         0.0000
     30 H12        44.7873  -11.5092   28.3302 H         1 <0>         0.0000
     31 H13        49.0038  -11.3761   28.8895 H         1 <0>         0.0000
     32 H14        49.8153  -10.0274   28.0525 H         1 <0>         0.0000
@<TRIPOS>BOND
     1    1    3 ar
     2    1    5 ar
     3    2    4 ar
     4    2    5 ar
     5    3    6 ar
     6    4    6 ar
     7    5   11 1
     8    6   15 1
     9    7    9 1
    10    8   10 1
    11    9   16 1
    12   10   17 1
    13   11   12 1
    14   11   13 2
    15   14   18 2
    16   15   18 1
    17   16   18 1
    18   17   18 1
    19    1   19 1
    20    2   20 1
    21    3   21 1
    22    4   22 1
    23    7   23 1
    24    7   24 1
    25    7   25 1
    26    8   26 1
    27    8   27 1
    28    8   28 1
    29    9   29 1
    30    9   30 1
    31   10   31 1
    32   10   32 1
@<TRIPOS>MOLECULE
*****
   32    32     0     0     0
SMALL
NO_CHARGES

@<TRIPOS>ATOM
      1 C1         46.9159   -9.1062   34.2499 C.ar      1 <0>         0.0000
      2 C2         44.7312   -8.6902   33.3060 C.ar      1 <0>         0.0000
      3 C3         47.5089   -8.7178   33.0487 C.ar      1 <0>         0.0000
      4 C4         45.3242   -8.3016   32.1047 C.ar      1 <0>         0.0000
      5 C5         45.5269   -9.0925   34.3786 C.ar      1 <0>         0.0000
      6 C6         46.7131   -8.3155   31.9761 C.ar      1 <0>         0.0000
      7 C7         44.0884   -9.9529   28.2626 C.3       1 <0>         0.0000
      8 C8         48.3747  -11.7239   28.5443 C.3       1 <0>         0.0000
      9 C9         45.3124   -9.0708   28.3870 C.3       1 <0>         0.0000
     10 C10        49.3179  -10.9509   29.4413 C.3       1 <0>         0.0000
     11 N1         44.9230   -9.4880   35.6013 N.pl3     1 <0>         0.0000
     12 O1         45.6566   -9.8466   36.5540 O.3       1 <0>         0.0000
     13 O2         43.6717   -9.4686   35.6956 O.2       1 <0>         0.0000
     14 O3         48.2766   -8.2678   28.3795 O.2       1 <0>         0.0000
     15 O4         47.2951   -7.9343   30.7976 O.3       1 <0>         0.0000
     16 O5         46.2353   -9.6836   29.2706 O.3       1 <0>         0.0000
     17 O6         48.5629  -10.0684   30.2538 O.3       1 <0>         0.0000
     18 P1         47.6369   -8.9264   29.5692 P.3       1 <0>         0.0000
     19 H1         47.5477   -9.4172   35.0784 H         1 <0>         0.0000
     20 H2         43.6474   -8.6752   33.3923 H         1 <0>         0.0000
     21 H3         48.5913   -8.7303   32.9546 H         1 <0>         0.0000
     22 H4         44.6990   -7.9897   31.2726 H         1 <0>         0.0000
     23 H5         44.3545  -10.9353   27.8629 H         1 <0>         0.0000
     24 H6         43.6080  -10.0861   29.2375 H         1 <0>         0.0000
     25 H7         43.3462   -9.4920   27.6025 H         1 <0>         0.0000
     26 H8         47.6683  -12.3128   29.1360 H         1 <0>         0.0000
     27 H9         47.8124  -11.0428   27.8971 H         1 <0>         0.0000
     28 H10        48.9334  -12.3985   27.8871 H         1 <0>         0.0000
     29 H11        45.0394   -8.0897   28.7873 H         1 <0>         0.0000
     30 H12        45.7916   -8.9393   27.4123 H         1 <0>         0.0000
     31 H13        50.0217  -10.3642   28.8433 H         1 <0>         0.0000
     32 H14        49.8783  -11.6328   30.0877 H         1 <0>         0.0000
@<TRIPOS>BOND
     1    1    3 ar
     2    1    5 ar
     3    2    4 ar
     4    2    5 ar
     5    3    6 ar
     6    4    6 ar
     7    5   11 1
     8    6   15 1
     9    7    9 1
    10    8   10 1
    11    9   16 1
    12   10   17 1
    13   11   12 1
    14   11   13 2
    15   14   18 2
    16   15   18 1
    17   16   18 1
    18   17   18 1
    19    1   19 1
    20    2   20 1
    21    3   21 1
    22    4   22 1
    23    7   23 1
    24    7   24 1
    25    7   25 1
    26    8   26 1
    27    8   27 1
    28    8   28 1
    29    9   29 1
    30    9   30 1
    31   10   31 1
    32   10   32 1
@<TRIPOS>MOLECULE
*****
   32    32     0     0     0
SMALL
NO_CHARGES

@<TRIPOS>ATOM
      1 C1         45.2331   -8.9829   32.9745 C.ar      1 <0>         0.0000
      2 C2         47.3033   -8.3144   34.0255 C.ar      1 <0>         0.0000
      3 C3         45.7878   -8.7288   31.7203 C.ar      1 <0>         0.0000
      4 C4         47.8581   -8.0604   32.7711 C.ar      1 <0>         0.0000
      5 C5         45.9907   -8.7757   34.1272 C.ar      1 <0>         0.0000
      6 C6         47.1002   -8.2676   31.6185 C.ar      1 <0>         0.0000
      7 C7         44.2784   -8.7451   27.5834 C.3       1 <0>         0.0000
      8 C8         49.3943  -11.5850   28.2954 C.3       1 <0>         0.0000
      9 C9         45.6612   -8.2909   27.9994 C.3       1 <0>         0.0000
     10 C10        48.2878  -11.7048   29.3216 C.3       1 <0>         0.0000
     11 N1         45.4263   -9.0340   35.4043 N.pl3     1 <0>         0.0000
     12 O1         44.2439   -9.4483   35.4740 O.3       1 <0>         0.0000
     13 O2         46.1251   -8.8405   36.4284 O.2       1 <0>         0.0000
     14 O3         48.8368   -8.7609   28.1632 O.2       1 <0>         0.0000
     15 O4         47.6445   -8.0184   30.3878 O.3       1 <0>         0.0000
     16 O5         46.3154   -9.3557   28.6674 O.3       1 <0>         0.0000
     17 O6         48.1713  -10.4771   30.0204 O.3       1 <0>         0.0000
     18 P1         47.8221   -9.1141   29.2139 P.3       1 <0>         0.0000
     19 H1         44.2091   -9.3425   33.0397 H         1 <0>         0.0000
     20 H2         47.9049   -8.1481   34.9157 H         1 <0>         0.0000
     21 H3         45.1927   -8.8925   30.8259 H         1 <0>         0.0000
     22 H4         48.8808   -7.7009   32.6984 H         1 <0>         0.0000
     23 H5         44.3365   -9.6000   26.9038 H         1 <0>         0.0000
     24 H6         43.6856   -9.0293   28.4591 H         1 <0>         0.0000
     25 H7         43.7394   -7.9331   27.0841 H         1 <0>         0.0000
     26 H8         49.1737  -10.7928   27.5746 H         1 <0>         0.0000
     27 H9         50.3499  -11.3642   28.7821 H         1 <0>         0.0000
     28 H10        49.5230  -12.5286   27.7549 H         1 <0>         0.0000
     29 H11        45.5960   -7.4358   28.6789 H         1 <0>         0.0000
     30 H12        46.2523   -8.0081   27.1233 H         1 <0>         0.0000
     31 H13        48.5145  -12.4987   30.0394 H         1 <0>         0.0000
     32 H14        47.3336  -11.9246   28.8336 H         1 <0>         0.0000
@<TRIPOS>BOND
     1    1    3 ar
     2    1    5 ar
     3    2    4 ar
     4    2    5 ar
     5    3    6 ar
     6    4    6 ar
     7    5   11 1
     8    6   15 1
     9    7    9 1
    10    8   10 1
    11    9   16 1
    12   10   17 1
    13   11   12 1
    14   11   13 2
    15   14   18 2
    16   15   18 1
    17   16   18 1
    18   17   18 1
    19    1   19 1
    20    2   20 1
    21    3   21 1
    22    4   22 1
    23    7   23 1
    24    7   24 1
    25    7   25 1
    26    8   26 1
    27    8   27 1
    28    8   28 1
    29    9   29 1
    30    9   30 1
    31   10   31 1
    32   10   32 1
@<TRIPOS>MOLECULE
*****
   32    32     0     0     0
SMALL
NO_CHARGES

@<TRIPOS>ATOM
      1 C1         47.3030   -8.5223   33.2320 C.ar      1 <0>         0.0000
      2 C2         44.9863   -7.8836   32.9833 C.ar      1 <0>         0.0000
      3 C3         47.4726   -8.4457   31.8496 C.ar      1 <0>         0.0000
      4 C4         45.1559   -7.8068   31.6008 C.ar      1 <0>         0.0000
      5 C5         46.0598   -8.2414   33.7988 C.ar      1 <0>         0.0000
      6 C6         46.3990   -8.0879   31.0341 C.ar      1 <0>         0.0000
      7 C7         44.1841   -8.5346   27.8943 C.3       1 <0>         0.0000
      8 C8         49.5440  -11.8416   30.2480 C.3       1 <0>         0.0000
      9 C9         44.7273   -9.9321   27.6853 C.3       1 <0>         0.0000
     10 C10        48.6027  -11.2927   29.1972 C.3       1 <0>         0.0000
     11 N1         45.8868   -8.3195   35.2060 N.pl3     1 <0>         0.0000
     12 O1         46.8651   -8.6433   35.9220 O.3       1 <0>         0.0000
     13 O2         44.7600   -8.0632   35.6953 O.2       1 <0>         0.0000
     14 O3         47.5823   -8.8382   27.3960 O.2       1 <0>         0.0000
     15 O4         46.5655   -8.0126   29.6778 O.3       1 <0>         0.0000
     16 O5         45.7119  -10.1965   28.6696 O.3       1 <0>         0.0000
     17 O6         48.0664  -10.0630   29.6550 O.3       1 <0>         0.0000
     18 P1         47.0189   -9.2399   28.7301 P.3       1 <0>         0.0000
     19 H1         48.1480   -8.8021   33.8563 H         1 <0>         0.0000
     20 H2         44.0117   -7.6625   33.4117 H         1 <0>         0.0000
     21 H3         48.4435   -8.6654   31.4139 H         1 <0>         0.0000
     22 H4         44.3157   -7.5280   30.9707 H         1 <0>         0.0000
     23 H5         43.7248   -8.4382   28.8820 H         1 <0>         0.0000
     24 H6         44.9834   -7.7919   27.8020 H         1 <0>         0.0000
     25 H7         43.4361   -8.2934   27.1317 H         1 <0>         0.0000
     26 H8         50.3692  -11.1484   30.4332 H         1 <0>         0.0000
     27 H9         49.0120  -12.0174   31.1888 H         1 <0>         0.0000
     28 H10        49.9565  -12.8053   29.9310 H         1 <0>         0.0000
     29 H11        45.1853  -10.0218   26.6957 H         1 <0>         0.0000
     30 H12        43.9276  -10.6729   27.7786 H         1 <0>         0.0000
     31 H13        47.7798  -11.9907   29.0168 H         1 <0>         0.0000
     32 H14        49.1359  -11.1168   28.2582 H         1 <0>         0.0000
@<TRIPOS>BOND
     1    1    3 ar
     2    1    5 ar
     3    2    4 ar
     4    2    5 ar
     5    3    6 ar
     6    4    6 ar
     7    5   11 1
     8    6   15 1
     9    7    9 1
    10    8   10 1
    11    9   16 1
    12   10   17 1
    13   11   12 1
    14   11   13 2
    15   14   18 2
    16   15   18 1
    17   16   18 1
    18   17   18 1
    19    1   19 1
    20    2   20 1
    21    3   21 1
    22    4   22 1
    23    7   23 1
    24    7   24 1
    25    7   25 1
    26    8   26 1
    27    8   27 1
    28    8   28 1
    29    9   29 1
    30    9   30 1
    31   10   31 1
    32   10   32 1
@<TRIPOS>MOLECULE
*****
   32    32     0     0     0
SMALL
NO_CHARGES

@<TRIPOS>ATOM
      1 C1         45.2868   -9.1480   32.9897 C.ar      1 <0>         0.0000
      2 C2         47.3569   -8.4796   34.0407 C.ar      1 <0>         0.0000
      3 C3         45.8415   -8.8940   31.7355 C.ar      1 <0>         0.0000
      4 C4         47.9117   -8.2255   32.7863 C.ar      1 <0>         0.0000
      5 C5         46.0444   -8.9408   34.1424 C.ar      1 <0>         0.0000
      6 C6         47.1539   -8.4328   31.6337 C.ar      1 <0>         0.0000
      7 C7         44.3320   -8.9103   27.5986 C.3       1 <0>         0.0000
      8 C8         49.4480  -11.7501   28.3105 C.3       1 <0>         0.0000
      9 C9         45.7148   -8.4560   28.0146 C.3       1 <0>         0.0000
     10 C10        48.3415  -11.8700   29.3368 C.3       1 <0>         0.0000
     11 N1         45.4800   -9.1991   35.4195 N.pl3     1 <0>         0.0000
     12 O1         44.2976   -9.6135   35.4892 O.3       1 <0>         0.0000
     13 O2         46.1788   -9.0056   36.4436 O.2       1 <0>         0.0000
     14 O3         48.8905   -8.9260   28.1784 O.2       1 <0>         0.0000
     15 O4         47.6982   -8.1836   30.4030 O.3       1 <0>         0.0000
     16 O5         46.3691   -9.5209   28.6825 O.3       1 <0>         0.0000
     17 O6         48.2250  -10.6422   30.0356 O.3       1 <0>         0.0000
     18 P1         47.8757   -9.2792   29.2291 P.3       1 <0>         0.0000
     19 H1         44.2627   -9.5076   33.0549 H         1 <0>         0.0000
     20 H2         47.9586   -8.3133   34.9309 H         1 <0>         0.0000
     21 H3         45.2464   -9.0576   30.8411 H         1 <0>         0.0000
     22 H4         48.9345   -7.8660   32.7136 H         1 <0>         0.0000
     23 H5         44.3901   -9.7651   26.9190 H         1 <0>         0.0000
     24 H6         43.7393   -9.1945   28.4743 H         1 <0>         0.0000
     25 H7         43.7930   -8.0982   27.0993 H         1 <0>         0.0000
     26 H8         49.2274  -10.9580   27.5897 H         1 <0>         0.0000
     27 H9         50.4036  -11.5293   28.7973 H         1 <0>         0.0000
     28 H10        49.5767  -12.6938   27.7701 H         1 <0>         0.0000
     29 H11        45.6496   -7.6010   28.6941 H         1 <0>         0.0000
     30 H12        46.3060   -8.1732   27.1385 H         1 <0>         0.0000
     31 H13        48.5682  -12.6639   30.0546 H         1 <0>         0.0000
     32 H14        47.3872  -12.0897   28.8488 H         1 <0>         0.0000
@<TRIPOS>BOND
     1    1    3 ar
     2    1    5 ar
     3    2    4 ar
     4    2    5 ar
     5    3    6 ar
     6    4    6 ar
     7    5   11 1
     8    6   15 1
     9    7    9 1
    10    8   10 1
    11    9   16 1
    12   10   17 1
    13   11   12 1
    14   11   13 2
    15   14   18 2
    16   15   18 1
    17   16   18 1
    18   17   18 1
    19    1   19 1
    20    2   20 1
    21    3   21 1
    22    4   22 1
    23    7   23 1
    24    7   24 1
    25    7   25 1
    26    8   26 1
    27    8   27 1
    28    8   28 1
    29    9   29 1
    30    9   30 1
    31   10   31 1
    32   10   32 1
@<TRIPOS>MOLECULE
*****
   32    32     0     0     0
SMALL
NO_CHARGES

@<TRIPOS>ATOM
      1 C1         46.7850   -8.9351   32.8239 C.ar      1 <0>         0.0000
      2 C2         48.7764   -7.5891   32.5794 C.ar      1 <0>         0.0000
      3 C3         46.6855   -9.0400   31.4366 C.ar      1 <0>         0.0000
      4 C4         48.6769   -7.6941   31.1920 C.ar      1 <0>         0.0000
      5 C5         47.8303   -8.2096   33.3954 C.ar      1 <0>         0.0000
      6 C6         47.6315   -8.4196   30.6207 C.ar      1 <0>         0.0000
      7 C7         44.7900   -8.7453   28.0161 C.3       1 <0>         0.0000
      8 C8         49.8476  -12.7860   29.8323 C.3       1 <0>         0.0000
      9 C9         45.0268  -10.2371   27.9147 C.3       1 <0>         0.0000
     10 C10        48.8264  -12.1747   28.8969 C.3       1 <0>         0.0000
     11 N1         47.9318   -8.1024   34.8076 N.pl3     1 <0>         0.0000
     12 O1         47.0705   -8.6680   35.5238 O.3       1 <0>         0.0000
     13 O2         48.8798   -7.4447   35.3010 O.2       1 <0>         0.0000
     14 O3         47.9129   -9.7705   26.9746 O.2       1 <0>         0.0000
     15 O4         47.5339   -8.5226   29.2595 O.3       1 <0>         0.0000
     16 O5         46.1264  -10.5868   28.7373 O.3       1 <0>         0.0000
     17 O6         48.6166  -10.8215   29.2631 O.3       1 <0>         0.0000
     18 P1         47.5662   -9.9087   28.4303 P.3       1 <0>         0.0000
     19 H1         46.0412   -9.4239   33.4484 H         1 <0>         0.0000
     20 H2         49.5960   -7.0202   33.0115 H         1 <0>         0.0000
     21 H3         45.8691   -9.6067   30.9973 H         1 <0>         0.0000
     22 H4         49.4167   -7.2082   30.5617 H         1 <0>         0.0000
     23 H5         44.5617   -8.4555   29.0455 H         1 <0>         0.0000
     24 H6         45.6723   -8.1907   27.6800 H         1 <0>         0.0000
     25 H7         43.9587   -8.4419   27.3710 H         1 <0>         0.0000
     26 H8         50.8018  -12.2554   29.7689 H         1 <0>         0.0000
     27 H9         49.4922  -12.7519   30.8673 H         1 <0>         0.0000
     28 H10        50.0129  -13.8404   29.5872 H         1 <0>         0.0000
     29 H11        45.2546  -10.5202   26.8827 H         1 <0>         0.0000
     30 H12        44.1447  -10.7897   28.2515 H         1 <0>         0.0000
     31 H13        47.8746  -12.7099   28.9651 H         1 <0>         0.0000
     32 H14        49.1834  -12.2087   27.8633 H         1 <0>         0.0000
@<TRIPOS>BOND
     1    1    3 ar
     2    1    5 ar
     3    2    4 ar
     4    2    5 ar
     5    3    6 ar
     6    4    6 ar
     7    5   11 1
     8    6   15 1
     9    7    9 1
    10    8   10 1
    11    9   16 1
    12   10   17 1
    13   11   12 1
    14   11   13 2
    15   14   18 2
    16   15   18 1
    17   16   18 1
    18   17   18 1
    19    1   19 1
    20    2   20 1
    21    3   21 1
    22    4   22 1
    23    7   23 1
    24    7   24 1
    25    7   25 1
    26    8   26 1
    27    8   27 1
    28    8   28 1
    29    9   29 1
    30    9   30 1
    31   10   31 1
    32   10   32 1
@<TRIPOS>MOLECULE
*****
   32    32     0     0     0
SMALL
NO_CHARGES

@<TRIPOS>ATOM
      1 C1         47.1792   -8.3475   34.2185 C.ar      1 <0>         0.0000
      2 C2         44.9724   -8.0876   33.2702 C.ar      1 <0>         0.0000
      3 C3         47.7459   -8.0926   32.9697 C.ar      1 <0>         0.0000
      4 C4         45.5390   -7.8326   32.0213 C.ar      1 <0>         0.0000
      5 C5         45.7924   -8.3451   34.3687 C.ar      1 <0>         0.0000
      6 C6         46.9258   -7.8351   31.8712 C.ar      1 <0>         0.0000
      7 C7         44.2807   -9.9499   28.4229 C.3       1 <0>         0.0000
      8 C8         48.6069  -11.5932   28.8369 C.3       1 <0>         0.0000
      9 C9         45.4876   -9.0361   28.4210 C.3       1 <0>         0.0000
     10 C10        49.5470  -10.7017   29.6199 C.3       1 <0>         0.0000
     11 N1         45.2152   -8.6047   35.6399 N.pl3     1 <0>         0.0000
     12 O1         45.9705   -8.8340   36.6153 O.3       1 <0>         0.0000
     13 O2         43.9654   -8.5981   35.7529 O.2       1 <0>         0.0000
     14 O3         48.4338   -8.1834   28.2674 O.2       1 <0>         0.0000
     15 O4         47.4819   -7.5850   30.6459 O.3       1 <0>         0.0000
     16 O5         46.4363   -9.5225   29.3545 O.3       1 <0>         0.0000
     17 O6         48.7859   -9.7439   30.3357 O.3       1 <0>         0.0000
     18 P1         47.8261   -8.7087   29.5374 P.3       1 <0>         0.0000
     19 H1         47.8298   -8.5462   35.0667 H         1 <0>         0.0000
     20 H2         43.8899   -8.0832   33.3729 H         1 <0>         0.0000
     21 H3         48.8268   -8.0955   32.8590 H         1 <0>         0.0000
     22 H4         44.8950   -7.6333   31.1692 H         1 <0>         0.0000
     23 H5         44.5612  -10.9674   28.1372 H         1 <0>         0.0000
     24 H6         43.8178   -9.9760   29.4148 H         1 <0>         0.0000
     25 H7         43.5191   -9.5845   27.7259 H         1 <0>         0.0000
     26 H8         47.9219  -12.1213   29.5061 H         1 <0>         0.0000
     27 H9         48.0207  -11.0043   28.1238 H         1 <0>         0.0000
     28 H10        49.1696  -12.3300   28.2542 H         1 <0>         0.0000
     29 H11        45.2001   -8.0200   28.7075 H         1 <0>         0.0000
     30 H12        45.9492   -9.0117   27.4295 H         1 <0>         0.0000
     31 H13        50.2293  -10.1765   28.9448 H         1 <0>         0.0000
     32 H14        50.1312  -11.2916   30.3324 H         1 <0>         0.0000
@<TRIPOS>BOND
     1    1    3 ar
     2    1    5 ar
     3    2    4 ar
     4    2    5 ar
     5    3    6 ar
     6    4    6 ar
     7    5   11 1
     8    6   15 1
     9    7    9 1
    10    8   10 1
    11    9   16 1
    12   10   17 1
    13   11   12 1
    14   11   13 2
    15   14   18 2
    16   15   18 1
    17   16   18 1
    18   17   18 1
    19    1   19 1
    20    2   20 1
    21    3   21 1
    22    4   22 1
    23    7   23 1
    24    7   24 1
    25    7   25 1
    26    8   26 1
    27    8   27 1
    28    8   28 1
    29    9   29 1
    30    9   30 1
    31   10   31 1
    32   10   32 1
@<TRIPOS>MOLECULE
*****
   32    32     0     0     0
SMALL
NO_CHARGES

@<TRIPOS>ATOM
      1 C1         47.7961   -8.7191   34.2349 C.ar      1 <0>         0.0000
      2 C2         45.5703   -8.5109   33.3186 C.ar      1 <0>         0.0000
      3 C3         48.3385   -8.4539   32.9775 C.ar      1 <0>         0.0000
      4 C4         46.1127   -8.2456   32.0612 C.ar      1 <0>         0.0000
      5 C5         46.4119   -8.7477   34.4054 C.ar      1 <0>         0.0000
      6 C6         47.4969   -8.2171   31.8907 C.ar      1 <0>         0.0000
      7 C7         44.8500  -10.3975   28.4849 C.3       1 <0>         0.0000
      8 C8         49.2177  -11.9421   28.8380 C.3       1 <0>         0.0000
      9 C9         46.0358   -9.4567   28.4639 C.3       1 <0>         0.0000
     10 C10        50.1489  -11.0283   29.6058 C.3       1 <0>         0.0000
     11 N1         45.8594   -9.0178   35.6853 N.pl3     1 <0>         0.0000
     12 O1         46.6337   -9.2282   36.6499 O.3       1 <0>         0.0000
     13 O2         44.6115   -9.0392   35.8166 O.2       1 <0>         0.0000
     14 O3         48.9595   -8.5382   28.2657 O.2       1 <0>         0.0000
     15 O4         48.0292   -7.9569   30.6571 O.3       1 <0>         0.0000
     16 O5         47.0088   -9.9198   29.3842 O.3       1 <0>         0.0000
     17 O6         49.3769  -10.0864   30.3312 O.3       1 <0>         0.0000
     18 P1         48.3824   -9.0746   29.5454 P.3       1 <0>         0.0000
     19 H1         48.4632   -8.9016   35.0738 H         1 <0>         0.0000
     20 H2         44.4896   -8.5306   33.4372 H         1 <0>         0.0000
     21 H3         49.4175   -8.4327   32.8510 H         1 <0>         0.0000
     22 H4         45.4520   -8.0624   31.2183 H         1 <0>         0.0000
     23 H5         45.1492  -11.4090   28.1967 H         1 <0>         0.0000
     24 H6         44.4024  -10.4321   29.4835 H         1 <0>         0.0000
     25 H7         44.0703  -10.0507   27.7986 H         1 <0>         0.0000
     26 H8         48.5546  -12.4843   29.5180 H         1 <0>         0.0000
     27 H9         48.6081  -11.3679   28.1327 H         1 <0>         0.0000
     28 H10        49.7884  -12.6672   28.2484 H         1 <0>         0.0000
     29 H11        45.7298   -8.4468   28.7530 H         1 <0>         0.0000
     30 H12        46.4823   -9.4238   27.4656 H         1 <0>         0.0000
     31 H13        50.8092  -10.4891   28.9199 H         1 <0>         0.0000
     32 H14        50.7566  -11.6035   30.3106 H         1 <0>         0.0000
@<TRIPOS>BOND
     1    1    3 ar
     2    1    5 ar
     3    2    4 ar
     4    2    5 ar
     5    3    6 ar
     6    4    6 ar
     7    5   11 1
     8    6   15 1
     9    7    9 1
    10    8   10 1
    11    9   16 1
    12   10   17 1
    13   11   12 1
    14   11   13 2
    15   14   18 2
    16   15   18 1
    17   16   18 1
    18   17   18 1
    19    1   19 1
    20    2   20 1
    21    3   21 1
    22    4   22 1
    23    7   23 1
    24    7   24 1
    25    7   25 1
    26    8   26 1
    27    8   27 1
    28    8   28 1
    29    9   29 1
    30    9   30 1
    31   10   31 1
    32   10   32 1
@<TRIPOS>MOLECULE
*****
   32    32     0     0     0
SMALL
NO_CHARGES

@<TRIPOS>ATOM
      1 C1         47.6904   -8.3939   34.1746 C.ar      1 <0>         0.0000
      2 C2         45.4646   -8.1856   33.2583 C.ar      1 <0>         0.0000
      3 C3         48.2328   -8.1286   32.9172 C.ar      1 <0>         0.0000
      4 C4         46.0070   -7.9203   32.0009 C.ar      1 <0>         0.0000
      5 C5         46.3062   -8.4224   34.3451 C.ar      1 <0>         0.0000
      6 C6         47.3912   -7.8919   31.8304 C.ar      1 <0>         0.0000
      7 C7         44.7443  -10.0722   28.4246 C.3       1 <0>         0.0000
      8 C8         49.1120  -11.6168   28.7777 C.3       1 <0>         0.0000
      9 C9         45.9301   -9.1314   28.4036 C.3       1 <0>         0.0000
     10 C10        50.0432  -10.7030   29.5455 C.3       1 <0>         0.0000
     11 N1         45.7537   -8.6925   35.6250 N.pl3     1 <0>         0.0000
     12 O1         46.5281   -8.9030   36.5896 O.3       1 <0>         0.0000
     13 O2         44.5058   -8.7139   35.7563 O.2       1 <0>         0.0000
     14 O3         48.8539   -8.2129   28.2054 O.2       1 <0>         0.0000
     15 O4         47.9235   -7.6316   30.5968 O.3       1 <0>         0.0000
     16 O5         46.9031   -9.5946   29.3239 O.3       1 <0>         0.0000
     17 O6         49.2712   -9.7611   30.2709 O.3       1 <0>         0.0000
     18 P1         48.2767   -8.7494   29.4851 P.3       1 <0>         0.0000
     19 H1         48.3575   -8.5763   35.0135 H         1 <0>         0.0000
     20 H2         44.3839   -8.2053   33.3769 H         1 <0>         0.0000
     21 H3         49.3118   -8.1075   32.7907 H         1 <0>         0.0000
     22 H4         45.3463   -7.7371   31.1579 H         1 <0>         0.0000
     23 H5         45.0435  -11.0837   28.1364 H         1 <0>         0.0000
     24 H6         44.2967  -10.1068   29.4232 H         1 <0>         0.0000
     25 H7         43.9646   -9.7254   27.7383 H         1 <0>         0.0000
     26 H8         48.4489  -12.1590   29.4577 H         1 <0>         0.0000
     27 H9         48.5024  -11.0427   28.0724 H         1 <0>         0.0000
     28 H10        49.6827  -12.3420   28.1881 H         1 <0>         0.0000
     29 H11        45.6241   -8.1215   28.6927 H         1 <0>         0.0000
     30 H12        46.3766   -9.0986   27.4053 H         1 <0>         0.0000
     31 H13        50.7035  -10.1638   28.8596 H         1 <0>         0.0000
     32 H14        50.6509  -11.2782   30.2503 H         1 <0>         0.0000
@<TRIPOS>BOND
     1    1    3 ar
     2    1    5 ar
     3    2    4 ar
     4    2    5 ar
     5    3    6 ar
     6    4    6 ar
     7    5   11 1
     8    6   15 1
     9    7    9 1
    10    8   10 1
    11    9   16 1
    12   10   17 1
    13   11   12 1
    14   11   13 2
    15   14   18 2
    16   15   18 1
    17   16   18 1
    18   17   18 1
    19    1   19 1
    20    2   20 1
    21    3   21 1
    22    4   22 1
    23    7   23 1
    24    7   24 1
    25    7   25 1
    26    8   26 1
    27    8   27 1
    28    8   28 1
    29    9   29 1
    30    9   30 1
    31   10   31 1
    32   10   32 1
@<TRIPOS>MOLECULE
*****
   32    32     0     0     0
SMALL
NO_CHARGES

@<TRIPOS>ATOM
      1 C1         45.4389   -8.6163   33.0765 C.ar      1 <0>         0.0000
      2 C2         47.5091   -7.9479   34.1276 C.ar      1 <0>         0.0000
      3 C3         45.9936   -8.3623   31.8223 C.ar      1 <0>         0.0000
      4 C4         48.0639   -7.6938   32.8732 C.ar      1 <0>         0.0000
      5 C5         46.1966   -8.4091   34.2292 C.ar      1 <0>         0.0000
      6 C6         47.3060   -7.9011   31.7205 C.ar      1 <0>         0.0000
      7 C7         44.4842   -8.3786   27.6854 C.3       1 <0>         0.0000
      8 C8         49.6001  -11.2185   28.3974 C.3       1 <0>         0.0000
      9 C9         45.8670   -7.9244   28.1014 C.3       1 <0>         0.0000
     10 C10        48.4936  -11.3383   29.4236 C.3       1 <0>         0.0000
     11 N1         45.6321   -8.6674   35.5063 N.pl3     1 <0>         0.0000
     12 O1         44.4497   -9.0818   35.5760 O.3       1 <0>         0.0000
     13 O2         46.3310   -8.4739   36.5304 O.2       1 <0>         0.0000
     14 O3         49.0426   -8.3944   28.2652 O.2       1 <0>         0.0000
     15 O4         47.8503   -7.6519   30.4898 O.3       1 <0>         0.0000
     16 O5         46.5212   -8.9892   28.7694 O.3       1 <0>         0.0000
     17 O6         48.3771  -10.1105   30.1224 O.3       1 <0>         0.0000
     18 P1         48.0279   -8.7475   29.3159 P.3       1 <0>         0.0000
     19 H1         44.4149   -8.9759   33.1417 H         1 <0>         0.0000
     20 H2         48.1107   -7.7816   35.0177 H         1 <0>         0.0000
     21 H3         45.3985   -8.5259   30.9279 H         1 <0>         0.0000
     22 H4         49.0867   -7.3343   32.8005 H         1 <0>         0.0000
     23 H5         44.5423   -9.2334   27.0058 H         1 <0>         0.0000
     24 H6         43.8914   -8.6628   28.5611 H         1 <0>         0.0000
     25 H7         43.9452   -7.5665   27.1861 H         1 <0>         0.0000
     26 H8         49.3796  -10.4263   27.6766 H         1 <0>         0.0000
     27 H9         50.5558  -10.9976   28.8841 H         1 <0>         0.0000
     28 H10        49.7288  -12.1621   27.8569 H         1 <0>         0.0000
     29 H11        45.8018   -7.0693   28.7809 H         1 <0>         0.0000
     30 H12        46.4581   -7.6416   27.2253 H         1 <0>         0.0000
     31 H13        48.7203  -12.1322   30.1414 H         1 <0>         0.0000
     32 H14        47.5394  -11.5580   28.9356 H         1 <0>         0.0000
@<TRIPOS>BOND
     1    1    3 ar
     2    1    5 ar
     3    2    4 ar
     4    2    5 ar
     5    3    6 ar
     6    4    6 ar
     7    5   11 1
     8    6   15 1
     9    7    9 1
    10    8   10 1
    11    9   16 1
    12   10   17 1
    13   11   12 1
    14   11   13 2
    15   14   18 2
    16   15   18 1
    17   16   18 1
    18   17   18 1
    19    1   19 1
    20    2   20 1
    21    3   21 1
    22    4   22 1
    23    7   23 1
    24    7   24 1
    25    7   25 1
    26    8   26 1
    27    8   27 1
    28    8   28 1
    29    9   29 1
    30    9   30 1
    31   10   31 1
    32   10   32 1
@<TRIPOS>MOLECULE
*****
   32    32     0     0     0
SMALL
NO_CHARGES

@<TRIPOS>ATOM
      1 C1         47.3066   -8.9028   33.6230 C.ar      1 <0>         0.0000
      2 C2         44.9999   -8.3212   33.2009 C.ar      1 <0>         0.0000
      3 C3         47.6578   -8.4267   32.3598 C.ar      1 <0>         0.0000
      4 C4         45.3511   -7.8452   31.9377 C.ar      1 <0>         0.0000
      5 C5         45.9776   -8.8501   34.0435 C.ar      1 <0>         0.0000
      6 C6         46.6801   -7.8979   31.5172 C.ar      1 <0>         0.0000
      7 C7         44.8525  -10.8065   28.1172 C.3       1 <0>         0.0000
      8 C8         50.3655   -9.2075   27.8607 C.3       1 <0>         0.0000
      9 C9         45.6138   -9.4982   28.0943 C.3       1 <0>         0.0000
     10 C10        49.8512   -9.8473   29.1327 C.3       1 <0>         0.0000
     11 N1         45.6198   -9.3349   35.3292 N.pl3     1 <0>         0.0000
     12 O1         46.5143   -9.8068   36.0720 O.3       1 <0>         0.0000
     13 O2         44.4185   -9.2785   35.6877 O.2       1 <0>         0.0000
     14 O3         47.9924   -7.5730   27.8355 O.2       1 <0>         0.0000
     15 O4         47.0247   -7.4307   30.2779 O.3       1 <0>         0.0000
     16 O5         46.7294   -9.5980   28.9624 O.3       1 <0>         0.0000
     17 O6         49.0371   -8.9141   29.8224 O.3       1 <0>         0.0000
     18 P1         47.7084   -8.3148   29.1113 P.3       1 <0>         0.0000
     19 H1         48.0785   -9.3122   34.2701 H         1 <0>         0.0000
     20 H2         43.9603   -8.2746   33.5157 H         1 <0>         0.0000
     21 H3         48.6947   -8.4701   32.0380 H         1 <0>         0.0000
     22 H4         44.5850   -7.4347   31.2856 H         1 <0>         0.0000
     23 H5         45.4850  -11.6319   27.7790 H         1 <0>         0.0000
     24 H6         44.4942  -11.0268   29.1281 H         1 <0>         0.0000
     25 H7         43.9697  -10.7505   27.4718 H         1 <0>         0.0000
     26 H8         49.5379   -8.9171   27.2078 H         1 <0>         0.0000
     27 H9         50.9636   -8.3194   28.0899 H         1 <0>         0.0000
     28 H10        51.0181   -9.8991   27.3176 H         1 <0>         0.0000
     29 H11        44.9756   -8.6768   28.4336 H         1 <0>         0.0000
     30 H12        45.9718   -9.2799   27.0838 H         1 <0>         0.0000
     31 H13        50.6838  -10.1355   29.7812 H         1 <0>         0.0000
     32 H14        49.2531  -10.7339   28.9019 H         1 <0>         0.0000
@<TRIPOS>BOND
     1    1    3 ar
     2    1    5 ar
     3    2    4 ar
     4    2    5 ar
     5    3    6 ar
     6    4    6 ar
     7    5   11 1
     8    6   15 1
     9    7    9 1
    10    8   10 1
    11    9   16 1
    12   10   17 1
    13   11   12 1
    14   11   13 2
    15   14   18 2
    16   15   18 1
    17   16   18 1
    18   17   18 1
    19    1   19 1
    20    2   20 1
    21    3   21 1
    22    4   22 1
    23    7   23 1
    24    7   24 1
    25    7   25 1
    26    8   26 1
    27    8   27 1
    28    8   28 1
    29    9   29 1
    30    9   30 1
    31   10   31 1
    32   10   32 1
@<TRIPOS>MOLECULE
*****
   32    32     0     0     0
SMALL
NO_CHARGES

@<TRIPOS>ATOM
      1 C1         46.9474   -9.0239   33.7905 C.ar      1 <0>         0.0000
      2 C2         44.9109   -7.9556   33.0501 C.ar      1 <0>         0.0000
      3 C3         47.5574   -8.7011   32.5784 C.ar      1 <0>         0.0000
      4 C4         45.5209   -7.6328   31.8380 C.ar      1 <0>         0.0000
      5 C5         45.6241   -8.6513   34.0263 C.ar      1 <0>         0.0000
      6 C6         46.8442   -8.0056   31.6021 C.ar      1 <0>         0.0000
      7 C7         44.8434  -10.5841   28.0373 C.3       1 <0>         0.0000
      8 C8         50.5631  -10.2907   28.5012 C.3       1 <0>         0.0000
      9 C9         45.8829   -9.4851   28.0948 C.3       1 <0>         0.0000
     10 C10        49.7567  -10.7354   29.7029 C.3       1 <0>         0.0000
     11 N1         45.0027   -8.9800   35.2601 N.pl3     1 <0>         0.0000
     12 O1         45.6617   -9.6061   36.1251 O.3       1 <0>         0.0000
     13 O2         43.8114   -8.6356   35.4517 O.2       1 <0>         0.0000
     14 O3         48.6551   -8.1640   28.1267 O.2       1 <0>         0.0000
     15 O4         47.4428   -7.6888   30.4129 O.3       1 <0>         0.0000
     16 O5         46.8251   -9.7933   29.1074 O.3       1 <0>         0.0000
     17 O6         49.0991   -9.6099   30.2597 O.3       1 <0>         0.0000
     18 P1         48.0469   -8.7598   29.3650 P.3       1 <0>         0.0000
     19 H1         47.5148   -9.5661   34.5431 H         1 <0>         0.0000
     20 H2         43.8787   -7.6594   33.2205 H         1 <0>         0.0000
     21 H3         48.5886   -8.9939   32.4006 H         1 <0>         0.0000
     22 H4         44.9600   -7.0912   31.0812 H         1 <0>         0.0000
     23 H5         45.3059  -11.5467   27.8022 H         1 <0>         0.0000
     24 H6         44.3178  -10.6686   28.9940 H         1 <0>         0.0000
     25 H7         44.0873  -10.3605   27.2774 H         1 <0>         0.0000
     26 H8         49.9153   -9.8519   27.7374 H         1 <0>         0.0000
     27 H9         51.3159   -9.5513   28.7937 H         1 <0>         0.0000
     28 H10        51.1020  -11.1375   28.0635 H         1 <0>         0.0000
     29 H11        45.4139   -8.5250   28.3303 H         1 <0>         0.0000
     30 H12        46.4077   -9.4025   27.1384 H         1 <0>         0.0000
     31 H13        50.4105  -11.1733   30.4630 H         1 <0>         0.0000
     32 H14        49.0045  -11.4734   29.4088 H         1 <0>         0.0000
@<TRIPOS>BOND
     1    1    3 ar
     2    1    5 ar
     3    2    4 ar
     4    2    5 ar
     5    3    6 ar
     6    4    6 ar
     7    5   11 1
     8    6   15 1
     9    7    9 1
    10    8   10 1
    11    9   16 1
    12   10   17 1
    13   11   12 1
    14   11   13 2
    15   14   18 2
    16   15   18 1
    17   16   18 1
    18   17   18 1
    19    1   19 1
    20    2   20 1
    21    3   21 1
    22    4   22 1
    23    7   23 1
    24    7   24 1
    25    7   25 1
    26    8   26 1
    27    8   27 1
    28    8   28 1
    29    9   29 1
    30    9   30 1
    31   10   31 1
    32   10   32 1
@<TRIPOS>MOLECULE
*****
   32    32     0     0     0
SMALL
NO_CHARGES

@<TRIPOS>ATOM
      1 C1         46.7574   -9.0978   33.5451 C.ar      1 <0>         0.0000
      2 C2         48.7278   -7.8235   34.1203 C.ar      1 <0>         0.0000
      3 C3         46.9347   -8.7657   32.2020 C.ar      1 <0>         0.0000
      4 C4         48.9051   -7.4914   32.7772 C.ar      1 <0>         0.0000
      5 C5         47.6539   -8.6266   34.5043 C.ar      1 <0>         0.0000
      6 C6         48.0085   -7.9625   31.8181 C.ar      1 <0>         0.0000
      7 C7         43.9212   -8.9792   28.4764 C.3       1 <0>         0.0000
      8 C8         49.2798  -12.0421   30.2270 C.3       1 <0>         0.0000
      9 C9         45.4006   -9.2624   28.3240 C.3       1 <0>         0.0000
     10 C10        49.3048  -10.6398   29.6576 C.3       1 <0>         0.0000
     11 N1         47.4736   -8.9644   35.8716 N.pl3     1 <0>         0.0000
     12 O1         46.5011   -9.6880   36.1961 O.3       1 <0>         0.0000
     13 O2         48.2914   -8.5297   36.7183 O.2       1 <0>         0.0000
     14 O3         48.4271   -8.2454   27.9524 O.2       1 <0>         0.0000
     15 O4         48.1825   -7.6368   30.5003 O.3       1 <0>         0.0000
     16 O5         46.1230   -8.4407   29.2247 O.3       1 <0>         0.0000
     17 O6         48.0137  -10.0682   29.7811 O.3       1 <0>         0.0000
     18 P1         47.7393   -8.5602   29.2510 P.3       1 <0>         0.0000
     19 H1         45.9165   -9.7249   33.8308 H         1 <0>         0.0000
     20 H2         49.4337   -7.4490   34.8575 H         1 <0>         0.0000
     21 H3         46.2332   -9.1360   31.4594 H         1 <0>         0.0000
     22 H4         49.7433   -6.8650   32.4843 H         1 <0>         0.0000
     23 H5         43.5851   -9.1973   29.4940 H         1 <0>         0.0000
     24 H6         43.7035   -7.9305   28.2493 H         1 <0>         0.0000
     25 H7         43.3382   -9.5846   27.7745 H         1 <0>         0.0000
     26 H8         49.0040  -12.0287   31.2851 H         1 <0>         0.0000
     27 H9         48.5640  -12.6670   29.6830 H         1 <0>         0.0000
     28 H10        50.2606  -12.5180   30.1237 H         1 <0>         0.0000
     29 H11        45.7302   -9.0422   27.3043 H         1 <0>         0.0000
     30 H12        45.6165  -10.3103   28.5521 H         1 <0>         0.0000
     31 H13        49.5814  -10.6603   28.5991 H         1 <0>         0.0000
     32 H14        50.0198  -10.0166   30.2028 H         1 <0>         0.0000
@<TRIPOS>BOND
     1    1    3 ar
     2    1    5 ar
     3    2    4 ar
     4    2    5 ar
     5    3    6 ar
     6    4    6 ar
     7    5   11 1
     8    6   15 1
     9    7    9 1
    10    8   10 1
    11    9   16 1
    12   10   17 1
    13   11   12 1
    14   11   13 2
    15   14   18 2
    16   15   18 1
    17   16   18 1
    18   17   18 1
    19    1   19 1
    20    2   20 1
    21    3   21 1
    22    4   22 1
    23    7   23 1
    24    7   24 1
    25    7   25 1
    26    8   26 1
    27    8   27 1
    28    8   28 1
    29    9   29 1
    30    9   30 1
    31   10   31 1
    32   10   32 1
@<TRIPOS>MOLECULE
*****
   32    32     0     0     0
SMALL
NO_CHARGES

@<TRIPOS>ATOM
      1 C1         47.0865   -9.3603   33.4489 C.ar      1 <0>         0.0000
      2 C2         45.3506   -7.7217   33.0761 C.ar      1 <0>         0.0000
      3 C3         47.7520   -8.9151   32.3067 C.ar      1 <0>         0.0000
      4 C4         46.0162   -7.2765   31.9339 C.ar      1 <0>         0.0000
      5 C5         45.8857   -8.7636   33.8335 C.ar      1 <0>         0.0000
      6 C6         47.2168   -7.8732   31.5493 C.ar      1 <0>         0.0000
      7 C7         44.1026   -9.3878   27.9678 C.3       1 <0>         0.0000
      8 C8         50.2880  -10.9183   29.1149 C.3       1 <0>         0.0000
      9 C9         45.5786   -9.1137   27.7726 C.3       1 <0>         0.0000
     10 C10        49.8277   -9.4761   29.1254 C.3       1 <0>         0.0000
     11 N1         45.2080   -9.2167   34.9960 N.pl3     1 <0>         0.0000
     12 O1         45.7061  -10.1553   35.6634 O.3       1 <0>         0.0000
     13 O2         44.1289   -8.6664   35.3240 O.2       1 <0>         0.0000
     14 O3         48.0901   -7.1083   27.8276 O.2       1 <0>         0.0000
     15 O4         47.8699   -7.4364   30.4287 O.3       1 <0>         0.0000
     16 O5         46.0744   -8.4256   28.9079 O.3       1 <0>         0.0000
     17 O6         48.4199   -9.4396   28.9650 O.3       1 <0>         0.0000
     18 P1         47.6425   -8.0165   28.9381 P.3       1 <0>         0.0000
     19 H1         47.5147  -10.1730   34.0305 H         1 <0>         0.0000
     20 H2         44.4152   -7.2481   33.3641 H         1 <0>         0.0000
     21 H3         48.6872   -9.3836   32.0122 H         1 <0>         0.0000
     22 H4         45.5941   -6.4648   31.3477 H         1 <0>         0.0000
     23 H5         43.9347  -10.0081   28.8526 H         1 <0>         0.0000
     24 H6         43.5478   -8.4508   28.0824 H         1 <0>         0.0000
     25 H7         43.6863   -9.8993   27.0936 H         1 <0>         0.0000
     26 H8         49.8289  -11.4803   29.9329 H         1 <0>         0.0000
     27 H9         50.0285  -11.3994   28.1661 H         1 <0>         0.0000
     28 H10        51.3770  -10.9764   29.2139 H         1 <0>         0.0000
     29 H11        45.7396   -8.4929   26.8862 H         1 <0>         0.0000
     30 H12        46.1315  -10.0508   27.6591 H         1 <0>         0.0000
     31 H13        50.2904   -8.9197   28.3048 H         1 <0>         0.0000
     32 H14        50.0870   -8.9972   30.0742 H         1 <0>         0.0000
@<TRIPOS>BOND
     1    1    3 ar
     2    1    5 ar
     3    2    4 ar
     4    2    5 ar
     5    3    6 ar
     6    4    6 ar
     7    5   11 1
     8    6   15 1
     9    7    9 1
    10    8   10 1
    11    9   16 1
    12   10   17 1
    13   11   12 1
    14   11   13 2
    15   14   18 2
    16   15   18 1
    17   16   18 1
    18   17   18 1
    19    1   19 1
    20    2   20 1
    21    3   21 1
    22    4   22 1
    23    7   23 1
    24    7   24 1
    25    7   25 1
    26    8   26 1
    27    8   27 1
    28    8   28 1
    29    9   29 1
    30    9   30 1
    31   10   31 1
    32   10   32 1
@<TRIPOS>MOLECULE
*****
   32    32     0     0     0
SMALL
NO_CHARGES

@<TRIPOS>ATOM
      1 C1         47.1792   -8.1764   33.6883 C.ar      1 <0>         0.0000
      2 C2         44.9724   -7.9166   32.7400 C.ar      1 <0>         0.0000
      3 C3         47.7459   -7.9215   32.4396 C.ar      1 <0>         0.0000
      4 C4         45.5390   -7.6616   31.4912 C.ar      1 <0>         0.0000
      5 C5         45.7924   -8.1740   33.8386 C.ar      1 <0>         0.0000
      6 C6         46.9258   -7.6641   31.3410 C.ar      1 <0>         0.0000
      7 C7         44.2807   -9.7789   27.8927 C.3       1 <0>         0.0000
      8 C8         48.6069  -11.4222   28.3067 C.3       1 <0>         0.0000
      9 C9         45.4876   -8.8651   27.8909 C.3       1 <0>         0.0000
     10 C10        49.5470  -10.5307   29.0898 C.3       1 <0>         0.0000
     11 N1         45.2152   -8.4337   35.1097 N.pl3     1 <0>         0.0000
     12 O1         45.9705   -8.6630   36.0852 O.3       1 <0>         0.0000
     13 O2         43.9654   -8.4271   35.2228 O.2       1 <0>         0.0000
     14 O3         48.4338   -8.0124   27.7372 O.2       1 <0>         0.0000
     15 O4         47.4819   -7.4140   30.1158 O.3       1 <0>         0.0000
     16 O5         46.4363   -9.3514   28.8244 O.3       1 <0>         0.0000
     17 O6         48.7859   -9.5729   29.8056 O.3       1 <0>         0.0000
     18 P1         47.8261   -8.5377   29.0073 P.3       1 <0>         0.0000
     19 H1         47.8298   -8.3752   34.5366 H         1 <0>         0.0000
     20 H2         43.8899   -7.9122   32.8428 H         1 <0>         0.0000
     21 H3         48.8268   -7.9245   32.3288 H         1 <0>         0.0000
     22 H4         44.8950   -7.4623   30.6390 H         1 <0>         0.0000
     23 H5         44.5612  -10.7964   27.6070 H         1 <0>         0.0000
     24 H6         43.8178   -9.8050   28.8847 H         1 <0>         0.0000
     25 H7         43.5191   -9.4135   27.1958 H         1 <0>         0.0000
     26 H8         47.9219  -11.9503   28.9759 H         1 <0>         0.0000
     27 H9         48.0207  -10.8333   27.5936 H         1 <0>         0.0000
     28 H10        49.1696  -12.1590   27.7241 H         1 <0>         0.0000
     29 H11        45.2001   -7.8490   28.1774 H         1 <0>         0.0000
     30 H12        45.9492   -8.8407   26.8993 H         1 <0>         0.0000
     31 H13        50.2293  -10.0055   28.4147 H         1 <0>         0.0000
     32 H14        50.1312  -11.1206   29.8022 H         1 <0>         0.0000
@<TRIPOS>BOND
     1    1    3 ar
     2    1    5 ar
     3    2    4 ar
     4    2    5 ar
     5    3    6 ar
     6    4    6 ar
     7    5   11 1
     8    6   15 1
     9    7    9 1
    10    8   10 1
    11    9   16 1
    12   10   17 1
    13   11   12 1
    14   11   13 2
    15   14   18 2
    16   15   18 1
    17   16   18 1
    18   17   18 1
    19    1   19 1
    20    2   20 1
    21    3   21 1
    22    4   22 1
    23    7   23 1
    24    7   24 1
    25    7   25 1
    26    8   26 1
    27    8   27 1
    28    8   28 1
    29    9   29 1
    30    9   30 1
    31   10   31 1
    32   10   32 1
@<TRIPOS>MOLECULE
*****
   32    32     0     0     0
SMALL
NO_CHARGES

@<TRIPOS>ATOM
      1 C1         47.4964   -9.2486   33.8809 C.ar      1 <0>         0.0000
      2 C2         45.4942   -7.8966   33.8754 C.ar      1 <0>         0.0000
      3 C3         47.7487   -8.8804   32.5594 C.ar      1 <0>         0.0000
      4 C4         45.7464   -7.5283   32.5539 C.ar      1 <0>         0.0000
      5 C5         46.3691   -8.7568   34.5389 C.ar      1 <0>         0.0000
      6 C6         46.8737   -8.0203   31.8960 C.ar      1 <0>         0.0000
      7 C7         44.6117  -10.3507   27.9836 C.3       1 <0>         0.0000
      8 C8         48.7039  -11.7632   29.4432 C.3       1 <0>         0.0000
      9 C9         44.1740   -8.9788   28.4506 C.3       1 <0>         0.0000
     10 C10        48.4514  -10.3074   29.1145 C.3       1 <0>         0.0000
     11 N1         46.1120   -9.1316   35.8842 N.pl3     1 <0>         0.0000
     12 O1         46.9114   -9.9064   36.4631 O.3       1 <0>         0.0000
     13 O2         45.0919   -8.6779   36.4574 O.2       1 <0>         0.0000
     14 O3         46.9941   -7.8583   27.9790 O.2       1 <0>         0.0000
     15 O4         47.1213   -7.6590   30.5993 O.3       1 <0>         0.0000
     16 O5         44.9902   -8.5791   29.5380 O.3       1 <0>         0.0000
     17 O6         47.1396   -9.9620   29.5253 O.3       1 <0>         0.0000
     18 P1         46.5882   -8.4539   29.2978 P.3       1 <0>         0.0000
     19 H1         48.1866   -9.9195   34.3866 H         1 <0>         0.0000
     20 H2         44.6115   -7.5062   34.3761 H         1 <0>         0.0000
     21 H3         48.6286   -9.2666   32.0522 H         1 <0>         0.0000
     22 H4         45.0609   -6.8583   32.0422 H         1 <0>         0.0000
     23 H5         45.6533  -10.3357   27.6510 H         1 <0>         0.0000
     24 H6         44.5086  -11.0840   28.7901 H         1 <0>         0.0000
     25 H7         43.9818  -10.6960   27.1571 H         1 <0>         0.0000
     26 H8         48.6169  -11.9412   30.5187 H         1 <0>         0.0000
     27 H9         47.9895  -12.4068   28.9195 H         1 <0>         0.0000
     28 H10        49.7041  -12.0651   29.1151 H         1 <0>         0.0000
     29 H11        43.1315   -9.0007   28.7819 H         1 <0>         0.0000
     30 H12        44.2784   -8.2471   27.6439 H         1 <0>         0.0000
     31 H13        48.5400  -10.1362   28.0374 H         1 <0>         0.0000
     32 H14        49.1655   -9.6657   29.6392 H         1 <0>         0.0000
@<TRIPOS>BOND
     1    1    3 ar
     2    1    5 ar
     3    2    4 ar
     4    2    5 ar
     5    3    6 ar
     6    4    6 ar
     7    5   11 1
     8    6   15 1
     9    7    9 1
    10    8   10 1
    11    9   16 1
    12   10   17 1
    13   11   12 1
    14   11   13 2
    15   14   18 2
    16   15   18 1
    17   16   18 1
    18   17   18 1
    19    1   19 1
    20    2   20 1
    21    3   21 1
    22    4   22 1
    23    7   23 1
    24    7   24 1
    25    7   25 1
    26    8   26 1
    27    8   27 1
    28    8   28 1
    29    9   29 1
    30    9   30 1
    31   10   31 1
    32   10   32 1
@<TRIPOS>MOLECULE
*****
   32    32     0     0     0
SMALL
NO_CHARGES

@<TRIPOS>ATOM
      1 C1         45.5132   -8.1021   33.2659 C.ar      1 <0>         0.0000
      2 C2         47.7552   -8.5950   34.0194 C.ar      1 <0>         0.0000
      3 C3         46.0012   -7.8388   31.9860 C.ar      1 <0>         0.0000
      4 C4         48.2433   -8.3317   32.7394 C.ar      1 <0>         0.0000
      5 C5         46.3902   -8.4802   34.2826 C.ar      1 <0>         0.0000
      6 C6         47.3662   -7.9535   31.7228 C.ar      1 <0>         0.0000
      7 C7         43.7774   -9.9412   28.8963 C.3       1 <0>         0.0000
      8 C8         50.3960   -9.0335   29.5685 C.3       1 <0>         0.0000
      9 C9         45.2066   -9.7175   28.4501 C.3       1 <0>         0.0000
     10 C10        49.5324  -10.0091   28.7977 C.3       1 <0>         0.0000
     11 N1         45.8937   -8.7482   35.5856 N.pl3     1 <0>         0.0000
     12 O1         44.6625   -8.6390   35.8017 O.3       1 <0>         0.0000
     13 O2         46.7000   -9.0865   36.4858 O.2       1 <0>         0.0000
     14 O3         47.6808   -7.7577   27.8419 O.2       1 <0>         0.0000
     15 O4         47.8450   -7.6953   30.4670 O.3       1 <0>         0.0000
     16 O5         45.8562   -8.8755   29.3868 O.3       1 <0>         0.0000
     17 O6         48.1942   -9.8994   29.2515 O.3       1 <0>         0.0000
     18 P1         47.4081   -8.4862   29.1277 P.3       1 <0>         0.0000
     19 H1         44.4471   -8.0092   33.4575 H         1 <0>         0.0000
     20 H2         48.4500   -8.8883   34.8026 H         1 <0>         0.0000
     21 H3         45.3131   -7.5449   31.1980 H         1 <0>         0.0000
     22 H4         49.3076   -8.4225   32.5406 H         1 <0>         0.0000
     23 H5         43.7459  -10.4218   29.8781 H         1 <0>         0.0000
     24 H6         43.2366   -8.9906   28.9506 H         1 <0>         0.0000
     25 H7         43.2429  -10.5709   28.1774 H         1 <0>         0.0000
     26 H8         50.0577   -8.0054   29.4125 H         1 <0>         0.0000
     27 H9         50.3677   -9.2564   30.6402 H         1 <0>         0.0000
     28 H10        51.4421   -9.1127   29.2544 H         1 <0>         0.0000
     29 H11        45.2310   -9.2365   27.4677 H         1 <0>         0.0000
     30 H12        45.7456  -10.6680   28.3973 H         1 <0>         0.0000
     31 H13        49.8759  -11.0353   28.9579 H         1 <0>         0.0000
     32 H14        49.5611   -9.7845   27.7272 H         1 <0>         0.0000
@<TRIPOS>BOND
     1    1    3 ar
     2    1    5 ar
     3    2    4 ar
     4    2    5 ar
     5    3    6 ar
     6    4    6 ar
     7    5   11 1
     8    6   15 1
     9    7    9 1
    10    8   10 1
    11    9   16 1
    12   10   17 1
    13   11   12 1
    14   11   13 2
    15   14   18 2
    16   15   18 1
    17   16   18 1
    18   17   18 1
    19    1   19 1
    20    2   20 1
    21    3   21 1
    22    4   22 1
    23    7   23 1
    24    7   24 1
    25    7   25 1
    26    8   26 1
    27    8   27 1
    28    8   28 1
    29    9   29 1
    30    9   30 1
    31   10   31 1
    32   10   32 1
@<TRIPOS>MOLECULE
*****
   32    32     0     0     0
SMALL
NO_CHARGES

@<TRIPOS>ATOM
      1 C1         47.4588   -9.1484   33.6456 C.ar      1 <0>         0.0000
      2 C2         45.4364   -7.8592   33.3534 C.ar      1 <0>         0.0000
      3 C3         47.9643   -8.6252   32.4556 C.ar      1 <0>         0.0000
      4 C4         45.9421   -7.3359   32.1633 C.ar      1 <0>         0.0000
      5 C5         46.1947   -8.7655   34.0945 C.ar      1 <0>         0.0000
      6 C6         47.2060   -7.7189   31.7145 C.ar      1 <0>         0.0000
      7 C7         44.2110   -9.8722   28.3660 C.3       1 <0>         0.0000
      8 C8         50.6278  -10.2349   29.1471 C.3       1 <0>         0.0000
      9 C9         45.5990   -9.3439   28.0727 C.3       1 <0>         0.0000
     10 C10        49.9159   -8.8989   29.1601 C.3       1 <0>         0.0000
     11 N1         45.6797   -9.2982   35.3058 N.pl3     1 <0>         0.0000
     12 O1         46.3778  -10.1121   35.9575 O.3       1 <0>         0.0000
     13 O2         44.5403   -8.9407   35.6913 O.2       1 <0>         0.0000
     14 O3         47.7057   -6.9202   27.9315 O.2       1 <0>         0.0000
     15 O4         47.7022   -7.2055   30.5469 O.3       1 <0>         0.0000
     16 O5         46.0284   -8.5449   29.1614 O.3       1 <0>         0.0000
     17 O6         48.5177   -9.1200   29.0886 O.3       1 <0>         0.0000
     18 P1         47.4958   -7.8607   29.0847 P.3       1 <0>         0.0000
     19 H1         48.0603   -9.8537   34.2139 H         1 <0>         0.0000
     20 H2         44.4495   -7.5525   33.6913 H         1 <0>         0.0000
     21 H3         48.9497   -8.9269   32.1112 H         1 <0>         0.0000
     22 H4         45.3464   -6.6307   31.5901 H         1 <0>         0.0000
     23 H5         44.2104  -10.4862   29.2710 H         1 <0>         0.0000
     24 H6         43.5038   -9.0469   28.4982 H         1 <0>         0.0000
     25 H7         43.8432  -10.4757   27.5295 H         1 <0>         0.0000
     26 H8         50.3269  -10.8457   30.0028 H         1 <0>         0.0000
     27 H9         50.4040  -10.7826   28.2256 H         1 <0>         0.0000
     28 H10        51.7133  -10.0940   29.1779 H         1 <0>         0.0000
     29 H11        45.5927   -8.7308   27.1665 H         1 <0>         0.0000
     30 H12        46.3045  -10.1698   27.9417 H         1 <0>         0.0000
     31 H13        50.2212   -8.2931   28.3017 H         1 <0>         0.0000
     32 H14        50.1399   -8.3534   30.0816 H         1 <0>         0.0000
@<TRIPOS>BOND
     1    1    3 ar
     2    1    5 ar
     3    2    4 ar
     4    2    5 ar
     5    3    6 ar
     6    4    6 ar
     7    5   11 1
     8    6   15 1
     9    7    9 1
    10    8   10 1
    11    9   16 1
    12   10   17 1
    13   11   12 1
    14   11   13 2
    15   14   18 2
    16   15   18 1
    17   16   18 1
    18   17   18 1
    19    1   19 1
    20    2   20 1
    21    3   21 1
    22    4   22 1
    23    7   23 1
    24    7   24 1
    25    7   25 1
    26    8   26 1
    27    8   27 1
    28    8   28 1
    29    9   29 1
    30    9   30 1
    31   10   31 1
    32   10   32 1
@<TRIPOS>MOLECULE
*****
   32    32     0     0     0
SMALL
NO_CHARGES

@<TRIPOS>ATOM
      1 C1         48.0733   -8.6607   33.1895 C.ar      1 <0>         0.0000
      2 C2         45.6633   -8.4924   33.2148 C.ar      1 <0>         0.0000
      3 C3         48.0970   -8.1289   31.9002 C.ar      1 <0>         0.0000
      4 C4         45.6869   -7.9607   31.9255 C.ar      1 <0>         0.0000
      5 C5         46.8565   -8.8424   33.8469 C.ar      1 <0>         0.0000
      6 C6         46.9037   -7.7790   31.2682 C.ar      1 <0>         0.0000
      7 C7         43.4682   -9.8552   27.6916 C.3       1 <0>         0.0000
      8 C8         49.6062  -10.8578   29.2661 C.3       1 <0>         0.0000
      9 C9         44.9429   -9.5396   27.5595 C.3       1 <0>         0.0000
     10 C10        49.0925   -9.4924   28.8621 C.3       1 <0>         0.0000
     11 N1         46.8321   -9.3839   35.1593 N.pl3     1 <0>         0.0000
     12 O1         47.9166   -9.6923   35.7101 O.3       1 <0>         0.0000
     13 O2         45.7268   -9.5395   35.7324 O.2       1 <0>         0.0000
     14 O3         47.3555   -7.4206   27.4125 O.2       1 <0>         0.0000
     15 O4         46.9270   -7.2572   30.0032 O.3       1 <0>         0.0000
     16 O5         45.3107   -8.6199   28.5729 O.3       1 <0>         0.0000
     17 O6         47.6826   -9.4686   29.0051 O.3       1 <0>         0.0000
     18 P1         46.8523   -8.1237   28.6417 P.3       1 <0>         0.0000
     19 H1         49.0106   -8.9289   33.6708 H         1 <0>         0.0000
     20 H2         44.7079   -8.6292   33.7153 H         1 <0>         0.0000
     21 H3         49.0479   -7.9893   31.3934 H         1 <0>         0.0000
     22 H4         44.7541   -7.6903   31.4381 H         1 <0>         0.0000
     23 H5         43.2508  -10.3033   28.6652 H         1 <0>         0.0000
     24 H6         42.8674   -8.9468   27.5785 H         1 <0>         0.0000
     25 H7         43.1498  -10.5474   26.9051 H         1 <0>         0.0000
     26 H8         49.3575  -11.0755   30.3086 H         1 <0>         0.0000
     27 H9         49.1740  -11.6368   28.6295 H         1 <0>         0.0000
     28 H10        50.6930  -10.9130   29.1433 H         1 <0>         0.0000
     29 H11        45.1535   -9.0917   26.5837 H         1 <0>         0.0000
     30 H12        45.5417  -10.4480   27.6735 H         1 <0>         0.0000
     31 H13        49.3446   -9.2809   27.8185 H         1 <0>         0.0000
     32 H14        49.5246   -8.7154   29.4997 H         1 <0>         0.0000
@<TRIPOS>BOND
     1    1    3 ar
     2    1    5 ar
     3    2    4 ar
     4    2    5 ar
     5    3    6 ar
     6    4    6 ar
     7    5   11 1
     8    6   15 1
     9    7    9 1
    10    8   10 1
    11    9   16 1
    12   10   17 1
    13   11   12 1
    14   11   13 2
    15   14   18 2
    16   15   18 1
    17   16   18 1
    18   17   18 1
    19    1   19 1
    20    2   20 1
    21    3   21 1
    22    4   22 1
    23    7   23 1
    24    7   24 1
    25    7   25 1
    26    8   26 1
    27    8   27 1
    28    8   28 1
    29    9   29 1
    30    9   30 1
    31   10   31 1
    32   10   32 1
@<TRIPOS>MOLECULE
*****
   32    32     0     0     0
SMALL
NO_CHARGES

@<TRIPOS>ATOM
      1 C1         45.2699   -8.9621   33.0198 C.ar      1 <0>         0.0000
      2 C2         47.3263   -7.8786   33.6787 C.ar      1 <0>         0.0000
      3 C3         45.6810   -8.9322   31.6873 C.ar      1 <0>         0.0000
      4 C4         47.7375   -7.8487   32.3461 C.ar      1 <0>         0.0000
      5 C5         46.0924   -8.4354   34.0156 C.ar      1 <0>         0.0000
      6 C6         46.9147   -8.3755   31.3504 C.ar      1 <0>         0.0000
      7 C7         45.2203   -8.0912   27.8846 C.3       1 <0>         0.0000
      8 C8         47.6866  -12.6968   28.8021 C.3       1 <0>         0.0000
      9 C9         45.3382   -9.5868   27.6821 C.3       1 <0>         0.0000
     10 C10        48.7028  -11.9444   29.6345 C.3       1 <0>         0.0000
     11 N1         45.6742   -8.4655   35.3722 N.pl3     1 <0>         0.0000
     12 O1         44.5606   -8.9707   35.6541 O.3       1 <0>         0.0000
     13 O2         46.4293   -7.9858   36.2521 O.2       1 <0>         0.0000
     14 O3         48.3973   -9.4307   27.9027 O.2       1 <0>         0.0000
     15 O4         47.3181   -8.3462   30.0430 O.3       1 <0>         0.0000
     16 O5         46.0183  -10.1504   28.7901 O.3       1 <0>         0.0000
     17 O6         48.1044  -10.7609   30.1348 O.3       1 <0>         0.0000
     18 P1         47.5259   -9.6470   29.1078 P.3       1 <0>         0.0000
     19 H1         44.3060   -9.3993   33.2688 H         1 <0>         0.0000
     20 H2         47.9771   -7.4641   34.4446 H         1 <0>         0.0000
     21 H3         45.0359   -9.3444   30.9161 H         1 <0>         0.0000
     22 H4         48.6995   -7.4133   32.0900 H         1 <0>         0.0000
     23 H5         44.6556   -7.8638   28.7931 H         1 <0>         0.0000
     24 H6         46.2117   -7.6325   27.9605 H         1 <0>         0.0000
     25 H7         44.7184   -7.6245   27.0305 H         1 <0>         0.0000
     26 H8         46.8167  -12.9735   29.4043 H         1 <0>         0.0000
     27 H9         47.3519  -12.0865   27.9569 H         1 <0>         0.0000
     28 H10        48.1292  -13.6062   28.3823 H         1 <0>         0.0000
     29 H11        45.9041   -9.8073   26.7719 H         1 <0>         0.0000
     30 H12        44.3468  -10.0435   27.6072 H         1 <0>         0.0000
     31 H13        49.5701  -11.6707   29.0262 H         1 <0>         0.0000
     32 H14        49.0355  -12.5553   30.4789 H         1 <0>         0.0000
@<TRIPOS>BOND
     1    1    3 ar
     2    1    5 ar
     3    2    4 ar
     4    2    5 ar
     5    3    6 ar
     6    4    6 ar
     7    5   11 1
     8    6   15 1
     9    7    9 1
    10    8   10 1
    11    9   16 1
    12   10   17 1
    13   11   12 1
    14   11   13 2
    15   14   18 2
    16   15   18 1
    17   16   18 1
    18   17   18 1
    19    1   19 1
    20    2   20 1
    21    3   21 1
    22    4   22 1
    23    7   23 1
    24    7   24 1
    25    7   25 1
    26    8   26 1
    27    8   27 1
    28    8   28 1
    29    9   29 1
    30    9   30 1
    31   10   31 1
    32   10   32 1
@<TRIPOS>MOLECULE
*****
   32    32     0     0     0
SMALL
NO_CHARGES

@<TRIPOS>ATOM
      1 C1         47.0865   -9.5313   33.9790 C.ar      1 <0>         0.0000
      2 C2         45.3506   -7.8927   33.6062 C.ar      1 <0>         0.0000
      3 C3         47.7520   -9.0861   32.8368 C.ar      1 <0>         0.0000
      4 C4         46.0162   -7.4475   32.4641 C.ar      1 <0>         0.0000
      5 C5         45.8857   -8.9346   34.3636 C.ar      1 <0>         0.0000
      6 C6         47.2168   -8.0442   32.0794 C.ar      1 <0>         0.0000
      7 C7         44.1026   -9.5588   28.4979 C.3       1 <0>         0.0000
      8 C8         50.2880  -11.0893   29.6450 C.3       1 <0>         0.0000
      9 C9         45.5786   -9.2847   28.3028 C.3       1 <0>         0.0000
     10 C10        49.8277   -9.6471   29.6555 C.3       1 <0>         0.0000
     11 N1         45.2080   -9.3877   35.5262 N.pl3     1 <0>         0.0000
     12 O1         45.7061  -10.3263   36.1936 O.3       1 <0>         0.0000
     13 O2         44.1289   -8.8374   35.8542 O.2       1 <0>         0.0000
     14 O3         48.0901   -7.2793   28.3577 O.2       1 <0>         0.0000
     15 O4         47.8699   -7.6074   30.9588 O.3       1 <0>         0.0000
     16 O5         46.0744   -8.5966   29.4381 O.3       1 <0>         0.0000
     17 O6         48.4199   -9.6106   29.4952 O.3       1 <0>         0.0000
     18 P1         47.6425   -8.1875   29.4682 P.3       1 <0>         0.0000
     19 H1         47.5147  -10.3440   34.5607 H         1 <0>         0.0000
     20 H2         44.4152   -7.4191   33.8943 H         1 <0>         0.0000
     21 H3         48.6872   -9.5546   32.5424 H         1 <0>         0.0000
     22 H4         45.5941   -6.6358   31.8778 H         1 <0>         0.0000
     23 H5         43.9347  -10.1791   29.3827 H         1 <0>         0.0000
     24 H6         43.5478   -8.6218   28.6126 H         1 <0>         0.0000
     25 H7         43.6863  -10.0703   27.6237 H         1 <0>         0.0000
     26 H8         49.8289  -11.6513   30.4631 H         1 <0>         0.0000
     27 H9         50.0285  -11.5704   28.6962 H         1 <0>         0.0000
     28 H10        51.3770  -11.1474   29.7440 H         1 <0>         0.0000
     29 H11        45.7396   -8.6639   27.4163 H         1 <0>         0.0000
     30 H12        46.1315  -10.2218   28.1892 H         1 <0>         0.0000
     31 H13        50.2904   -9.0907   28.8349 H         1 <0>         0.0000
     32 H14        50.0870   -9.1682   30.6044 H         1 <0>         0.0000
@<TRIPOS>BOND
     1    1    3 ar
     2    1    5 ar
     3    2    4 ar
     4    2    5 ar
     5    3    6 ar
     6    4    6 ar
     7    5   11 1
     8    6   15 1
     9    7    9 1
    10    8   10 1
    11    9   16 1
    12   10   17 1
    13   11   12 1
    14   11   13 2
    15   14   18 2
    16   15   18 1
    17   16   18 1
    18   17   18 1
    19    1   19 1
    20    2   20 1
    21    3   21 1
    22    4   22 1
    23    7   23 1
    24    7   24 1
    25    7   25 1
    26    8   26 1
    27    8   27 1
    28    8   28 1
    29    9   29 1
    30    9   30 1
    31   10   31 1
    32   10   32 1
@<TRIPOS>MOLECULE
*****
   32    32     0     0     0
SMALL
NO_CHARGES

@<TRIPOS>ATOM
      1 C1         47.7839   -9.9282   33.5702 C.ar      1 <0>         0.0000
      2 C2         46.0726   -8.2258   33.4688 C.ar      1 <0>         0.0000
      3 C3         48.3339   -9.4461   32.3825 C.ar      1 <0>         0.0000
      4 C4         46.6227   -7.7436   32.2811 C.ar      1 <0>         0.0000
      5 C5         46.6531   -9.3181   34.1133 C.ar      1 <0>         0.0000
      6 C6         47.7533   -8.3538   31.7380 C.ar      1 <0>         0.0000
      7 C7         44.2154   -9.6036   28.4607 C.3       1 <0>         0.0000
      8 C8         50.4355  -11.3596   28.8395 C.3       1 <0>         0.0000
      9 C9         45.6692   -9.3613   28.1149 C.3       1 <0>         0.0000
     10 C10        50.0271   -9.9075   28.9672 C.3       1 <0>         0.0000
     11 N1         46.0929   -9.8088   35.3223 N.pl3     1 <0>         0.0000
     12 O1         46.6302  -10.7925   35.8863 O.3       1 <0>         0.0000
     13 O2         45.0753   -9.2456   35.7934 O.2       1 <0>         0.0000
     14 O3         48.2363   -7.4315   27.9810 O.2       1 <0>         0.0000
     15 O4         48.2931   -7.8808   30.5727 O.3       1 <0>         0.0000
     16 O5         46.3094   -8.7439   29.2181 O.3       1 <0>         0.0000
     17 O6         48.6122   -9.8241   28.9667 O.3       1 <0>         0.0000
     18 P1         47.8840   -8.3804   29.0918 P.3       1 <0>         0.0000
     19 H1         48.2465  -10.7801   34.0627 H         1 <0>         0.0000
     20 H2         45.1908   -7.7411   33.8807 H         1 <0>         0.0000
     21 H3         49.2150   -9.9253   31.9645 H         1 <0>         0.0000
     22 H4         46.1656   -6.8927   31.7833 H         1 <0>         0.0000
     23 H5         44.1255  -10.2618   29.3294 H         1 <0>         0.0000
     24 H6         43.7079   -8.6584   28.6793 H         1 <0>         0.0000
     25 H7         43.6888  -10.0598   27.6159 H         1 <0>         0.0000
     26 H8         50.0510  -11.9482   29.6770 H         1 <0>         0.0000
     27 H9         50.0574  -11.7862   27.9045 H         1 <0>         0.0000
     28 H10        51.5263  -11.4528   28.8136 H         1 <0>         0.0000
     29 H11        45.7521   -8.7024   27.2454 H         1 <0>         0.0000
     30 H12        46.1750  -10.3067   27.8976 H         1 <0>         0.0000
     31 H13        50.4147   -9.3245   28.1264 H         1 <0>         0.0000
     32 H14        50.4049   -9.4831   29.9021 H         1 <0>         0.0000
@<TRIPOS>BOND
     1    1    3 ar
     2    1    5 ar
     3    2    4 ar
     4    2    5 ar
     5    3    6 ar
     6    4    6 ar
     7    5   11 1
     8    6   15 1
     9    7    9 1
    10    8   10 1
    11    9   16 1
    12   10   17 1
    13   11   12 1
    14   11   13 2
    15   14   18 2
    16   15   18 1
    17   16   18 1
    18   17   18 1
    19    1   19 1
    20    2   20 1
    21    3   21 1
    22    4   22 1
    23    7   23 1
    24    7   24 1
    25    7   25 1
    26    8   26 1
    27    8   27 1
    28    8   28 1
    29    9   29 1
    30    9   30 1
    31   10   31 1
    32   10   32 1
@<TRIPOS>MOLECULE
*****
   32    32     0     0     0
SMALL
NO_CHARGES

@<TRIPOS>ATOM
      1 C1         46.8873   -9.3588   33.9664 C.ar      1 <0>         0.0000
      2 C2         45.1253   -7.9133   33.1647 C.ar      1 <0>         0.0000
      3 C3         47.5658   -9.2022   32.7578 C.ar      1 <0>         0.0000
      4 C4         45.8037   -7.7567   31.9561 C.ar      1 <0>         0.0000
      5 C5         45.6670   -8.7145   34.1699 C.ar      1 <0>         0.0000
      6 C6         47.0239   -8.4011   31.7527 C.ar      1 <0>         0.0000
      7 C7         44.5765  -10.6067   28.2163 C.3       1 <0>         0.0000
      8 C8         50.2269  -11.4889   28.7737 C.3       1 <0>         0.0000
      9 C9         45.8202   -9.7450   28.2656 C.3       1 <0>         0.0000
     10 C10        49.3313  -11.7245   29.9713 C.3       1 <0>         0.0000
     11 N1         44.9761   -8.8740   35.4001 N.pl3     1 <0>         0.0000
     12 O1         45.4805   -9.5990   36.2914 O.3       1 <0>         0.0000
     13 O2         43.8796   -8.2858   35.5623 O.2       1 <0>         0.0000
     14 O3         48.8052   -9.0248   28.3145 O.2       1 <0>         0.0000
     15 O4         47.6897   -8.2473   30.5668 O.3       1 <0>         0.0000
     16 O5         46.6657  -10.2136   29.3018 O.3       1 <0>         0.0000
     17 O6         48.9141  -10.4727   30.4892 O.3       1 <0>         0.0000
     18 P1         48.0717   -9.4482   29.5559 P.3       1 <0>         0.0000
     19 H1         47.3209   -9.9858   34.7417 H         1 <0>         0.0000
     20 H2         44.1747   -7.4057   33.3098 H         1 <0>         0.0000
     21 H3         48.5161   -9.7064   32.6053 H         1 <0>         0.0000
     22 H4         45.3764   -7.1317   31.1767 H         1 <0>         0.0000
     23 H5         44.8325  -11.6501   28.0127 H         1 <0>         0.0000
     24 H6         44.0331  -10.5547   29.1655 H         1 <0>         0.0000
     25 H7         43.8924  -10.2524   27.4381 H         1 <0>         0.0000
     26 H8         49.6933  -10.9467   27.9882 H         1 <0>         0.0000
     27 H9         51.1128  -10.9133   29.0615 H         1 <0>         0.0000
     28 H10        50.5841  -12.4404   28.3661 H         1 <0>         0.0000
     29 H11        45.5572   -8.7027   28.4696 H         1 <0>         0.0000
     30 H12        46.3624   -9.7987   27.3169 H         1 <0>         0.0000
     31 H13        49.8709  -12.2671   30.7532 H         1 <0>         0.0000
     32 H14        48.4463  -12.2988   29.6819 H         1 <0>         0.0000
@<TRIPOS>BOND
     1    1    3 ar
     2    1    5 ar
     3    2    4 ar
     4    2    5 ar
     5    3    6 ar
     6    4    6 ar
     7    5   11 1
     8    6   15 1
     9    7    9 1
    10    8   10 1
    11    9   16 1
    12   10   17 1
    13   11   12 1
    14   11   13 2
    15   14   18 2
    16   15   18 1
    17   16   18 1
    18   17   18 1
    19    1   19 1
    20    2   20 1
    21    3   21 1
    22    4   22 1
    23    7   23 1
    24    7   24 1
    25    7   25 1
    26    8   26 1
    27    8   27 1
    28    8   28 1
    29    9   29 1
    30    9   30 1
    31   10   31 1
    32   10   32 1
@<TRIPOS>MOLECULE
*****
   32    32     0     0     0
SMALL
NO_CHARGES

@<TRIPOS>ATOM
      1 C1         46.8978   -9.4250   33.8504 C.ar      1 <0>         0.0000
      2 C2         45.1358   -7.9795   33.0487 C.ar      1 <0>         0.0000
      3 C3         47.5762   -9.2683   32.6417 C.ar      1 <0>         0.0000
      4 C4         45.8142   -7.8229   31.8401 C.ar      1 <0>         0.0000
      5 C5         45.6775   -8.7806   34.0538 C.ar      1 <0>         0.0000
      6 C6         47.0344   -8.4672   31.6366 C.ar      1 <0>         0.0000
      7 C7         44.5870  -10.6728   28.1003 C.3       1 <0>         0.0000
      8 C8         50.2374  -11.5550   28.6577 C.3       1 <0>         0.0000
      9 C9         45.8307   -9.8112   28.1496 C.3       1 <0>         0.0000
     10 C10        49.3418  -11.7906   29.8553 C.3       1 <0>         0.0000
     11 N1         44.9865   -8.9402   35.2840 N.pl3     1 <0>         0.0000
     12 O1         45.4910   -9.6652   36.1754 O.3       1 <0>         0.0000
     13 O2         43.8900   -8.3519   35.4463 O.2       1 <0>         0.0000
     14 O3         48.8157   -9.0910   28.1985 O.2       1 <0>         0.0000
     15 O4         47.7001   -8.3135   30.4508 O.3       1 <0>         0.0000
     16 O5         46.6761  -10.2797   29.1858 O.3       1 <0>         0.0000
     17 O6         48.9246  -10.5388   30.3732 O.3       1 <0>         0.0000
     18 P1         48.0822   -9.5144   29.4399 P.3       1 <0>         0.0000
     19 H1         47.3314  -10.0520   34.6257 H         1 <0>         0.0000
     20 H2         44.1852   -7.4719   33.1938 H         1 <0>         0.0000
     21 H3         48.5266   -9.7726   32.4892 H         1 <0>         0.0000
     22 H4         45.3869   -7.1978   31.0607 H         1 <0>         0.0000
     23 H5         44.8430  -11.7162   27.8967 H         1 <0>         0.0000
     24 H6         44.0436  -10.6208   29.0495 H         1 <0>         0.0000
     25 H7         43.9028  -10.3186   27.3221 H         1 <0>         0.0000
     26 H8         49.7038  -11.0128   27.8722 H         1 <0>         0.0000
     27 H9         51.1233  -10.9795   28.9455 H         1 <0>         0.0000
     28 H10        50.5946  -12.5065   28.2500 H         1 <0>         0.0000
     29 H11        45.5677   -8.7689   28.3536 H         1 <0>         0.0000
     30 H12        46.3728   -9.8648   27.2009 H         1 <0>         0.0000
     31 H13        49.8814  -12.3333   30.6371 H         1 <0>         0.0000
     32 H14        48.4567  -12.3650   29.5659 H         1 <0>         0.0000
@<TRIPOS>BOND
     1    1    3 ar
     2    1    5 ar
     3    2    4 ar
     4    2    5 ar
     5    3    6 ar
     6    4    6 ar
     7    5   11 1
     8    6   15 1
     9    7    9 1
    10    8   10 1
    11    9   16 1
    12   10   17 1
    13   11   12 1
    14   11   13 2
    15   14   18 2
    16   15   18 1
    17   16   18 1
    18   17   18 1
    19    1   19 1
    20    2   20 1
    21    3   21 1
    22    4   22 1
    23    7   23 1
    24    7   24 1
    25    7   25 1
    26    8   26 1
    27    8   27 1
    28    8   28 1
    29    9   29 1
    30    9   30 1
    31   10   31 1
    32   10   32 1
@<TRIPOS>MOLECULE
*****
   32    32     0     0     0
SMALL
NO_CHARGES

@<TRIPOS>ATOM
      1 C1         46.0259   -8.6584   33.2090 C.ar      1 <0>         0.0000
      2 C2         48.1772   -7.6505   33.6490 C.ar      1 <0>         0.0000
      3 C3         46.2796   -8.6017   31.8387 C.ar      1 <0>         0.0000
      4 C4         48.4308   -7.5938   32.2785 C.ar      1 <0>         0.0000
      5 C5         46.9747   -8.1828   34.1143 C.ar      1 <0>         0.0000
      6 C6         47.4820   -8.0695   31.3734 C.ar      1 <0>         0.0000
      7 C7         45.4043   -7.6405   28.1387 C.3       1 <0>         0.0000
      8 C8         47.8196  -12.3359   28.6444 C.3       1 <0>         0.0000
      9 C9         45.4522   -9.1324   27.8862 C.3       1 <0>         0.0000
     10 C10        48.9483  -11.6355   29.3704 C.3       1 <0>         0.0000
     11 N1         46.7168   -8.2402   35.5094 N.pl3     1 <0>         0.0000
     12 O1         45.6289   -8.7226   35.9073 O.3       1 <0>         0.0000
     13 O2         47.5836   -7.8065   36.3064 O.2       1 <0>         0.0000
     14 O3         48.5195   -9.0661   27.7501 O.2       1 <0>         0.0000
     15 O4         47.7308   -8.0139   30.0288 O.3       1 <0>         0.0000
     16 O5         46.2394   -9.7457   28.8923 O.3       1 <0>         0.0000
     17 O6         48.4486  -10.4508   29.9670 O.3       1 <0>         0.0000
     18 P1         47.7884   -9.2928   29.0433 P.3       1 <0>         0.0000
     19 H1         45.0848   -9.0760   33.5584 H         1 <0>         0.0000
     20 H2         48.9252   -7.2759   34.3433 H         1 <0>         0.0000
     21 H3         45.5367   -8.9740   31.1384 H         1 <0>         0.0000
     22 H4         49.3692   -7.1778   31.9222 H         1 <0>         0.0000
     23 H5         44.9566   -7.4238   29.1126 H         1 <0>         0.0000
     24 H6         46.4113   -7.2114   28.1091 H         1 <0>         0.0000
     25 H7         44.8206   -7.1362   27.3614 H         1 <0>         0.0000
     26 H8         47.0179  -12.6058   29.3375 H         1 <0>         0.0000
     27 H9         47.4073  -11.6928   27.8599 H         1 <0>         0.0000
     28 H10        48.1823  -13.2447   28.1528 H         1 <0>         0.0000
     29 H11        45.9011   -9.3422   26.9107 H         1 <0>         0.0000
     30 H12        44.4455   -9.5595   27.9169 H         1 <0>         0.0000
     31 H13        49.7467  -11.3683   28.6716 H         1 <0>         0.0000
     32 H14        49.3585  -12.2790   30.1542 H         1 <0>         0.0000
@<TRIPOS>BOND
     1    1    3 ar
     2    1    5 ar
     3    2    4 ar
     4    2    5 ar
     5    3    6 ar
     6    4    6 ar
     7    5   11 1
     8    6   15 1
     9    7    9 1
    10    8   10 1
    11    9   16 1
    12   10   17 1
    13   11   12 1
    14   11   13 2
    15   14   18 2
    16   15   18 1
    17   16   18 1
    18   17   18 1
    19    1   19 1
    20    2   20 1
    21    3   21 1
    22    4   22 1
    23    7   23 1
    24    7   24 1
    25    7   25 1
    26    8   26 1
    27    8   27 1
    28    8   28 1
    29    9   29 1
    30    9   30 1
    31   10   31 1
    32   10   32 1
@<TRIPOS>MOLECULE
*****
   32    32     0     0     0
SMALL
NO_CHARGES

@<TRIPOS>ATOM
      1 C1         46.7086   -9.6638   32.9506 C.ar      1 <0>         0.0000
      2 C2         47.3083   -7.5523   33.9600 C.ar      1 <0>         0.0000
      3 C3         47.3131   -9.2656   31.7582 C.ar      1 <0>         0.0000
      4 C4         47.9128   -7.1540   32.7676 C.ar      1 <0>         0.0000
      5 C5         46.7062   -8.8072   34.0514 C.ar      1 <0>         0.0000
      6 C6         47.9152   -8.0107   31.6668 C.ar      1 <0>         0.0000
      7 C7         44.2738   -8.9193   28.3905 C.3       1 <0>         0.0000
      8 C8         50.2609  -11.3429   28.8340 C.3       1 <0>         0.0000
      9 C9         45.7467   -8.8445   28.0491 C.3       1 <0>         0.0000
     10 C10        50.0145   -9.8526   28.9353 C.3       1 <0>         0.0000
     11 N1         46.0909   -9.2122   35.2653 N.pl3     1 <0>         0.0000
     12 O1         45.5547  -10.3452   35.3268 O.3       1 <0>         0.0000
     13 O2         46.0995   -8.4261   36.2433 O.2       1 <0>         0.0000
     14 O3         48.5114   -7.2117   27.8979 O.2       1 <0>         0.0000
     15 O4         48.5083   -7.6200   30.4969 O.3       1 <0>         0.0000
     16 O5         46.4468   -8.2825   29.1455 O.3       1 <0>         0.0000
     17 O6         48.6174   -9.6139   28.9253 O.3       1 <0>         0.0000
     18 P1         48.0523   -8.0969   29.0222 P.3       1 <0>         0.0000
     19 H1         46.2433  -10.6447   33.0086 H         1 <0>         0.0000
     20 H2         47.3133   -6.8744   34.8101 H         1 <0>         0.0000
     21 H3         47.3121   -9.9374   30.9042 H         1 <0>         0.0000
     22 H4         48.3799   -6.1751   32.7024 H         1 <0>         0.0000
     23 H5         44.1085   -9.5485   29.2696 H         1 <0>         0.0000
     24 H6         43.8726   -7.9203   28.5905 H         1 <0>         0.0000
     25 H7         43.7033   -9.3291   27.5505 H         1 <0>         0.0000
     26 H8         49.8107  -11.8711   29.6790 H         1 <0>         0.0000
     27 H9         49.8417  -11.7411   27.9041 H         1 <0>         0.0000
     28 H10        51.3349  -11.5560   28.8159 H         1 <0>         0.0000
     29 H11        45.9050   -8.2138   27.1692 H         1 <0>         0.0000
     30 H12        46.1460   -9.8435   27.8505 H         1 <0>         0.0000
     31 H13        50.4673   -9.3304   28.0872 H         1 <0>         0.0000
     32 H14        50.4332   -9.4565   29.8652 H         1 <0>         0.0000
@<TRIPOS>BOND
     1    1    3 ar
     2    1    5 ar
     3    2    4 ar
     4    2    5 ar
     5    3    6 ar
     6    4    6 ar
     7    5   11 1
     8    6   15 1
     9    7    9 1
    10    8   10 1
    11    9   16 1
    12   10   17 1
    13   11   12 1
    14   11   13 2
    15   14   18 2
    16   15   18 1
    17   16   18 1
    18   17   18 1
    19    1   19 1
    20    2   20 1
    21    3   21 1
    22    4   22 1
    23    7   23 1
    24    7   24 1
    25    7   25 1
    26    8   26 1
    27    8   27 1
    28    8   28 1
    29    9   29 1
    30    9   30 1
    31   10   31 1
    32   10   32 1
@<TRIPOS>MOLECULE
*****
   32    32     0     0     0
SMALL
NO_CHARGES

@<TRIPOS>ATOM
      1 C1         46.0781   -8.0677   33.1350 C.ar      1 <0>         0.0000
      2 C2         48.1561   -9.0407   33.8916 C.ar      1 <0>         0.0000
      3 C3         46.6496   -7.8171   31.8876 C.ar      1 <0>         0.0000
      4 C4         48.7276   -8.7902   32.6441 C.ar      1 <0>         0.0000
      5 C5         46.8314   -8.6794   34.1371 C.ar      1 <0>         0.0000
      6 C6         47.9743   -8.1783   31.6421 C.ar      1 <0>         0.0000
      7 C7         44.1629   -9.2249   28.6094 C.3       1 <0>         0.0000
      8 C8         50.8063   -9.6789   29.4706 C.3       1 <0>         0.0000
      9 C9         45.6223   -9.2550   28.2078 C.3       1 <0>         0.0000
     10 C10        49.7957  -10.4109   28.6135 C.3       1 <0>         0.0000
     11 N1         46.2499   -8.9344   35.4072 N.pl3     1 <0>         0.0000
     12 O1         45.0568   -8.6016   35.6076 O.3       1 <0>         0.0000
     13 O2         46.9453   -9.4854   36.2947 O.2       1 <0>         0.0000
     14 O3         48.4480   -7.7801   27.7930 O.2       1 <0>         0.0000
     15 O4         48.5350   -7.9326   30.4180 O.3       1 <0>         0.0000
     16 O5         46.3917   -8.6233   29.2164 O.3       1 <0>         0.0000
     17 O6         48.4899  -10.0731   29.0491 O.3       1 <0>         0.0000
     18 P1         47.9973   -8.5283   29.0159 P.3       1 <0>         0.0000
     19 H1         45.0445   -7.7814   33.3130 H         1 <0>         0.0000
     20 H2         48.7547   -9.5177   34.6638 H         1 <0>         0.0000
     21 H3         46.0578   -7.3406   31.1108 H         1 <0>         0.0000
     22 H4         49.7602   -9.0736   32.4590 H         1 <0>         0.0000
     23 H5         44.0067   -9.7568   29.5520 H         1 <0>         0.0000
     24 H6         43.8152   -8.1930   28.7239 H         1 <0>         0.0000
     25 H7         43.5403   -9.6866   27.8359 H         1 <0>         0.0000
     26 H8         50.6791   -8.5962   29.3850 H         1 <0>         0.0000
     27 H9         50.7002   -9.9655   30.5220 H         1 <0>         0.0000
     28 H10        51.8269   -9.9394   29.1711 H         1 <0>         0.0000
     29 H11        45.7716   -8.7214   27.2644 H         1 <0>         0.0000
     30 H12        45.9682  -10.2867   28.0947 H         1 <0>         0.0000
     31 H13        49.9283  -11.4931   28.7035 H         1 <0>         0.0000
     32 H14        49.9025  -10.1229   27.5634 H         1 <0>         0.0000
@<TRIPOS>BOND
     1    1    3 ar
     2    1    5 ar
     3    2    4 ar
     4    2    5 ar
     5    3    6 ar
     6    4    6 ar
     7    5   11 1
     8    6   15 1
     9    7    9 1
    10    8   10 1
    11    9   16 1
    12   10   17 1
    13   11   12 1
    14   11   13 2
    15   14   18 2
    16   15   18 1
    17   16   18 1
    18   17   18 1
    19    1   19 1
    20    2   20 1
    21    3   21 1
    22    4   22 1
    23    7   23 1
    24    7   24 1
    25    7   25 1
    26    8   26 1
    27    8   27 1
    28    8   28 1
    29    9   29 1
    30    9   30 1
    31   10   31 1
    32   10   32 1
@<TRIPOS>MOLECULE
*****
   32    32     0     0     0
SMALL
NO_CHARGES

@<TRIPOS>ATOM
      1 C1         47.5970   -8.7965   33.9650 C.ar      1 <0>         0.0000
      2 C2         45.2903   -8.2149   33.5429 C.ar      1 <0>         0.0000
      3 C3         47.9482   -8.3204   32.7019 C.ar      1 <0>         0.0000
      4 C4         45.6415   -7.7389   32.2797 C.ar      1 <0>         0.0000
      5 C5         46.2680   -8.7438   34.3855 C.ar      1 <0>         0.0000
      6 C6         46.9704   -7.7916   31.8593 C.ar      1 <0>         0.0000
      7 C7         45.1429  -10.7002   28.4592 C.3       1 <0>         0.0000
      8 C8         50.6559   -9.1012   28.2027 C.3       1 <0>         0.0000
      9 C9         45.9042   -9.3919   28.4363 C.3       1 <0>         0.0000
     10 C10        50.1416   -9.7410   29.4747 C.3       1 <0>         0.0000
     11 N1         45.9101   -9.2286   35.6713 N.pl3     1 <0>         0.0000
     12 O1         46.8047   -9.7005   36.4140 O.3       1 <0>         0.0000
     13 O2         44.7089   -9.1722   36.0298 O.2       1 <0>         0.0000
     14 O3         48.2828   -7.4667   28.1775 O.2       1 <0>         0.0000
     15 O4         47.3151   -7.3244   30.6199 O.3       1 <0>         0.0000
     16 O5         47.0198   -9.4917   29.3044 O.3       1 <0>         0.0000
     17 O6         49.3274   -8.8078   30.1644 O.3       1 <0>         0.0000
     18 P1         47.9988   -8.2085   29.4533 P.3       1 <0>         0.0000
     19 H1         48.3689   -9.2059   34.6121 H         1 <0>         0.0000
     20 H2         44.2506   -8.1683   33.8578 H         1 <0>         0.0000
     21 H3         48.9851   -8.3638   32.3800 H         1 <0>         0.0000
     22 H4         44.8754   -7.3284   31.6276 H         1 <0>         0.0000
     23 H5         45.7754  -11.5257   28.1211 H         1 <0>         0.0000
     24 H6         44.7845  -10.9206   29.4701 H         1 <0>         0.0000
     25 H7         44.2601  -10.6442   27.8138 H         1 <0>         0.0000
     26 H8         49.8282   -8.8108   27.5498 H         1 <0>         0.0000
     27 H9         51.2540   -8.2131   28.4319 H         1 <0>         0.0000
     28 H10        51.3084   -9.7928   27.6596 H         1 <0>         0.0000
     29 H11        45.2660   -8.5705   28.7756 H         1 <0>         0.0000
     30 H12        46.2622   -9.1736   27.4258 H         1 <0>         0.0000
     31 H13        50.9742  -10.0292   30.1232 H         1 <0>         0.0000
     32 H14        49.5435  -10.6276   29.2439 H         1 <0>         0.0000
@<TRIPOS>BOND
     1    1    3 ar
     2    1    5 ar
     3    2    4 ar
     4    2    5 ar
     5    3    6 ar
     6    4    6 ar
     7    5   11 1
     8    6   15 1
     9    7    9 1
    10    8   10 1
    11    9   16 1
    12   10   17 1
    13   11   12 1
    14   11   13 2
    15   14   18 2
    16   15   18 1
    17   16   18 1
    18   17   18 1
    19    1   19 1
    20    2   20 1
    21    3   21 1
    22    4   22 1
    23    7   23 1
    24    7   24 1
    25    7   25 1
    26    8   26 1
    27    8   27 1
    28    8   28 1
    29    9   29 1
    30    9   30 1
    31   10   31 1
    32   10   32 1
@<TRIPOS>MOLECULE
*****
   32    32     0     0     0
SMALL
NO_CHARGES

@<TRIPOS>ATOM
      1 C1         46.7458   -9.0646   33.7386 C.ar      1 <0>         0.0000
      2 C2         48.6037   -7.5628   34.0991 C.ar      1 <0>         0.0000
      3 C3         46.8694   -8.8868   32.3608 C.ar      1 <0>         0.0000
      4 C4         48.7273   -7.3850   32.7211 C.ar      1 <0>         0.0000
      5 C5         47.6129   -8.4026   34.6079 C.ar      1 <0>         0.0000
      6 C6         47.8601   -8.0471   31.8519 C.ar      1 <0>         0.0000
      7 C7         45.4953   -8.0226   28.7907 C.3       1 <0>         0.0000
      8 C8         49.0413  -11.9671   28.8515 C.3       1 <0>         0.0000
      9 C9         45.8955   -9.4412   28.4451 C.3       1 <0>         0.0000
     10 C10        50.0118  -11.0344   29.5443 C.3       1 <0>         0.0000
     11 N1         47.4872   -8.5831   36.0107 N.pl3     1 <0>         0.0000
     12 O1         46.5893   -9.3427   36.4480 O.3       1 <0>         0.0000
     13 O2         48.2773   -7.9778   36.7748 O.2       1 <0>         0.0000
     14 O3         48.8281   -8.5917   28.1150 O.2       1 <0>         0.0000
     15 O4         47.9814   -7.8728   30.5000 O.3       1 <0>         0.0000
     16 O5         46.8872   -9.8766   29.3588 O.3       1 <0>         0.0000
     17 O6         49.2794  -10.0423   30.2433 O.3       1 <0>         0.0000
     18 P1         48.2803   -9.0517   29.4366 P.3       1 <0>         0.0000
     19 H1         45.9695   -9.7222   34.1220 H         1 <0>         0.0000
     20 H2         49.2859   -7.0403   34.7651 H         1 <0>         0.0000
     21 H3         46.1911   -9.4055   31.6886 H         1 <0>         0.0000
     22 H4         49.5008   -6.7293   32.3308 H         1 <0>         0.0000
     23 H5         45.0850   -7.9686   29.8029 H         1 <0>         0.0000
     24 H6         46.3573   -7.3508   28.7223 H         1 <0>         0.0000
     25 H7         44.7451   -7.6505   28.0851 H         1 <0>         0.0000
     26 H8         48.3893  -12.4612   29.5773 H         1 <0>         0.0000
     27 H9         48.4212  -11.4171   28.1361 H         1 <0>         0.0000
     28 H10        49.5805  -12.7320   28.2830 H         1 <0>         0.0000
     29 H11        46.3050   -9.4882   27.4316 H         1 <0>         0.0000
     30 H12        45.0333  -10.1111   28.5147 H         1 <0>         0.0000
     31 H13        50.6608  -10.5435   28.8129 H         1 <0>         0.0000
     32 H14        50.6299  -11.5854   30.2593 H         1 <0>         0.0000
@<TRIPOS>BOND
     1    1    3 ar
     2    1    5 ar
     3    2    4 ar
     4    2    5 ar
     5    3    6 ar
     6    4    6 ar
     7    5   11 1
     8    6   15 1
     9    7    9 1
    10    8   10 1
    11    9   16 1
    12   10   17 1
    13   11   12 1
    14   11   13 2
    15   14   18 2
    16   15   18 1
    17   16   18 1
    18   17   18 1
    19    1   19 1
    20    2   20 1
    21    3   21 1
    22    4   22 1
    23    7   23 1
    24    7   24 1
    25    7   25 1
    26    8   26 1
    27    8   27 1
    28    8   28 1
    29    9   29 1
    30    9   30 1
    31   10   31 1
    32   10   32 1
@<TRIPOS>MOLECULE
*****
   32    32     0     0     0
SMALL
NO_CHARGES

@<TRIPOS>ATOM
      1 C1         47.0725   -8.6419   33.9650 C.ar      1 <0>         0.0000
      2 C2         44.7658   -8.0604   33.5429 C.ar      1 <0>         0.0000
      3 C3         47.4237   -8.1659   32.7019 C.ar      1 <0>         0.0000
      4 C4         45.1171   -7.5844   32.2797 C.ar      1 <0>         0.0000
      5 C5         45.7435   -8.5893   34.3855 C.ar      1 <0>         0.0000
      6 C6         46.4460   -7.6371   31.8593 C.ar      1 <0>         0.0000
      7 C7         44.6185  -10.5457   28.4592 C.3       1 <0>         0.0000
      8 C8         50.1314   -8.9467   28.2027 C.3       1 <0>         0.0000
      9 C9         45.3797   -9.2374   28.4363 C.3       1 <0>         0.0000
     10 C10        49.6171   -9.5865   29.4747 C.3       1 <0>         0.0000
     11 N1         45.3857   -9.0741   35.6713 N.pl3     1 <0>         0.0000
     12 O1         46.2803   -9.5460   36.4140 O.3       1 <0>         0.0000
     13 O2         44.1844   -9.0177   36.0298 O.2       1 <0>         0.0000
     14 O3         47.7583   -7.3122   28.1775 O.2       1 <0>         0.0000
     15 O4         46.7907   -7.1699   30.6199 O.3       1 <0>         0.0000
     16 O5         46.4953   -9.3372   29.3044 O.3       1 <0>         0.0000
     17 O6         48.8030   -8.6533   30.1644 O.3       1 <0>         0.0000
     18 P1         47.4743   -8.0540   29.4533 P.3       1 <0>         0.0000
     19 H1         47.8445   -9.0514   34.6121 H         1 <0>         0.0000
     20 H2         43.7262   -8.0138   33.8578 H         1 <0>         0.0000
     21 H3         48.4606   -8.2093   32.3800 H         1 <0>         0.0000
     22 H4         44.3509   -7.1739   31.6276 H         1 <0>         0.0000
     23 H5         45.2509  -11.3711   28.1211 H         1 <0>         0.0000
     24 H6         44.2601  -10.7660   29.4701 H         1 <0>         0.0000
     25 H7         43.7356  -10.4897   27.8138 H         1 <0>         0.0000
     26 H8         49.3038   -8.6563   27.5498 H         1 <0>         0.0000
     27 H9         50.7295   -8.0586   28.4319 H         1 <0>         0.0000
     28 H10        50.7840   -9.6383   27.6596 H         1 <0>         0.0000
     29 H11        44.7415   -8.4160   28.7756 H         1 <0>         0.0000
     30 H12        45.7377   -9.0191   27.4258 H         1 <0>         0.0000
     31 H13        50.4497   -9.8747   30.1232 H         1 <0>         0.0000
     32 H14        49.0190  -10.4731   29.2439 H         1 <0>         0.0000
@<TRIPOS>BOND
     1    1    3 ar
     2    1    5 ar
     3    2    4 ar
     4    2    5 ar
     5    3    6 ar
     6    4    6 ar
     7    5   11 1
     8    6   15 1
     9    7    9 1
    10    8   10 1
    11    9   16 1
    12   10   17 1
    13   11   12 1
    14   11   13 2
    15   14   18 2
    16   15   18 1
    17   16   18 1
    18   17   18 1
    19    1   19 1
    20    2   20 1
    21    3   21 1
    22    4   22 1
    23    7   23 1
    24    7   24 1
    25    7   25 1
    26    8   26 1
    27    8   27 1
    28    8   28 1
    29    9   29 1
    30    9   30 1
    31   10   31 1
    32   10   32 1
@<TRIPOS>MOLECULE
*****
   32    32     0     0     0
SMALL
NO_CHARGES

@<TRIPOS>ATOM
      1 C1         47.1050   -9.0917   34.0871 C.ar      1 <0>         0.0000
      2 C2         45.3260   -7.5530   33.5352 C.ar      1 <0>         0.0000
      3 C3         47.7158   -8.8251   32.8618 C.ar      1 <0>         0.0000
      4 C4         45.9368   -7.2864   32.3099 C.ar      1 <0>         0.0000
      5 C5         45.9101   -8.4557   34.4238 C.ar      1 <0>         0.0000
      6 C6         47.1317   -7.9224   31.9732 C.ar      1 <0>         0.0000
      7 C7         44.4467   -9.7392   28.3885 C.3       1 <0>         0.0000
      8 C8         50.1031  -10.7406   28.5241 C.3       1 <0>         0.0000
      9 C9         45.7064   -8.9018   28.4485 C.3       1 <0>         0.0000
     10 C10        49.2735  -11.0821   29.7436 C.3       1 <0>         0.0000
     11 N1         45.2880   -8.7271   35.6710 N.pl3     1 <0>         0.0000
     12 O1         45.8296   -9.5425   36.4562 O.3       1 <0>         0.0000
     13 O2         44.2133   -8.1445   35.9541 O.2       1 <0>         0.0000
     14 O3         48.7016   -8.2262   28.3919 O.2       1 <0>         0.0000
     15 O4         47.7310   -7.6608   30.7710 O.3       1 <0>         0.0000
     16 O5         46.6013   -9.4803   29.3825 O.3       1 <0>         0.0000
     17 O6         48.9091   -9.8823   30.4047 O.3       1 <0>         0.0000
     18 P1         48.0330   -8.7608   29.6270 P.3       1 <0>         0.0000
     19 H1         47.5710   -9.7972   34.7707 H         1 <0>         0.0000
     20 H2         44.3946   -7.0506   33.7847 H         1 <0>         0.0000
     21 H3         48.6467   -9.3233   32.6052 H         1 <0>         0.0000
     22 H4         45.4768   -6.5825   31.6217 H         1 <0>         0.0000
     23 H5         44.6719  -10.7605   28.0693 H         1 <0>         0.0000
     24 H6         43.9595   -9.7743   29.3685 H         1 <0>         0.0000
     25 H7         43.7255   -9.3018   27.6901 H         1 <0>         0.0000
     26 H8         49.5351  -10.1173   27.8280 H         1 <0>         0.0000
     27 H9         51.0141  -10.2070   28.8142 H         1 <0>         0.0000
     28 H10        50.4193  -11.6517   28.0053 H         1 <0>         0.0000
     29 H11        45.4741   -7.8815   28.7682 H         1 <0>         0.0000
     30 H12        46.1922   -8.8684   27.4688 H         1 <0>         0.0000
     31 H13        49.8472  -11.7056   30.4357 H         1 <0>         0.0000
     32 H14        48.3632  -11.6144   29.4520 H         1 <0>         0.0000
@<TRIPOS>BOND
     1    1    3 ar
     2    1    5 ar
     3    2    4 ar
     4    2    5 ar
     5    3    6 ar
     6    4    6 ar
     7    5   11 1
     8    6   15 1
     9    7    9 1
    10    8   10 1
    11    9   16 1
    12   10   17 1
    13   11   12 1
    14   11   13 2
    15   14   18 2
    16   15   18 1
    17   16   18 1
    18   17   18 1
    19    1   19 1
    20    2   20 1
    21    3   21 1
    22    4   22 1
    23    7   23 1
    24    7   24 1
    25    7   25 1
    26    8   26 1
    27    8   27 1
    28    8   28 1
    29    9   29 1
    30    9   30 1
    31   10   31 1
    32   10   32 1
@<TRIPOS>MOLECULE
*****
   32    32     0     0     0
SMALL
NO_CHARGES

@<TRIPOS>ATOM
      1 C1         45.4010  -10.3935   33.1462 C.ar      1 <0>         0.0000
      2 C2         45.3472   -8.1271   33.9813 C.ar      1 <0>         0.0000
      3 C3         46.2883  -10.0030   32.1432 C.ar      1 <0>         0.0000
      4 C4         46.2344   -7.7365   32.9783 C.ar      1 <0>         0.0000
      5 C5         44.9305   -9.4556   34.0651 C.ar      1 <0>         0.0000
      6 C6         46.7050   -8.6744   32.0594 C.ar      1 <0>         0.0000
      7 C7         43.9406   -9.1330   28.4559 C.3       1 <0>         0.0000
      8 C8         49.3834  -12.5078   29.3989 C.3       1 <0>         0.0000
      9 C9         45.2935   -8.4885   28.6698 C.3       1 <0>         0.0000
     10 C10        48.6360  -11.3077   28.8580 C.3       1 <0>         0.0000
     11 N1         44.0272   -9.8528   35.0862 N.pl3     1 <0>         0.0000
     12 O1         43.6645  -11.0528   35.1442 O.3       1 <0>         0.0000
     13 O2         43.6157   -8.9931   35.9023 O.2       1 <0>         0.0000
     14 O3         48.3410   -8.1239   28.5638 O.2       1 <0>         0.0000
     15 O4         47.5756   -8.2913   31.0753 O.3       1 <0>         0.0000
     16 O5         46.1611   -9.4279   29.2802 O.3       1 <0>         0.0000
     17 O6         48.4553  -10.3670   29.9028 O.3       1 <0>         0.0000
     18 P1         47.6803   -8.9719   29.6139 P.3       1 <0>         0.0000
     19 H1         45.0845  -11.4322   33.2005 H         1 <0>         0.0000
     20 H2         44.9879   -7.3856   34.6907 H         1 <0>         0.0000
     21 H3         46.6516  -10.7382   31.4304 H         1 <0>         0.0000
     22 H4         46.5552   -6.7000   32.9179 H         1 <0>         0.0000
     23 H5         44.0233  -10.0067   27.8036 H         1 <0>         0.0000
     24 H6         43.5064   -9.4450   29.4115 H         1 <0>         0.0000
     25 H7         43.2409   -8.4211   28.0058 H         1 <0>         0.0000
     26 H8         50.3661  -12.2164   29.7799 H         1 <0>         0.0000
     27 H9         48.8175  -12.9828   30.2071 H         1 <0>         0.0000
     28 H10        49.5172  -13.2634   28.6175 H         1 <0>         0.0000
     29 H11        45.2038   -7.6153   29.3230 H         1 <0>         0.0000
     30 H12        45.7263   -8.1780   27.7141 H         1 <0>         0.0000
     31 H13        47.6541  -11.6060   28.4786 H         1 <0>         0.0000
     32 H14        49.2030  -10.8338   28.0512 H         1 <0>         0.0000
@<TRIPOS>BOND
     1    1    3 ar
     2    1    5 ar
     3    2    4 ar
     4    2    5 ar
     5    3    6 ar
     6    4    6 ar
     7    5   11 1
     8    6   15 1
     9    7    9 1
    10    8   10 1
    11    9   16 1
    12   10   17 1
    13   11   12 1
    14   11   13 2
    15   14   18 2
    16   15   18 1
    17   16   18 1
    18   17   18 1
    19    1   19 1
    20    2   20 1
    21    3   21 1
    22    4   22 1
    23    7   23 1
    24    7   24 1
    25    7   25 1
    26    8   26 1
    27    8   27 1
    28    8   28 1
    29    9   29 1
    30    9   30 1
    31   10   31 1
    32   10   32 1
@<TRIPOS>MOLECULE
*****
   32    32     0     0     0
SMALL
NO_CHARGES

@<TRIPOS>ATOM
      1 C1         47.6859  -10.0351   33.1067 C.ar      1 <0>         0.0000
      2 C2         47.9749   -7.6522   32.8327 C.ar      1 <0>         0.0000
      3 C3         48.0704  -10.2342   31.7808 C.ar      1 <0>         0.0000
      4 C4         48.3595   -7.8513   31.5067 C.ar      1 <0>         0.0000
      5 C5         47.6381   -8.7441   33.6326 C.ar      1 <0>         0.0000
      6 C6         48.4073   -9.1423   30.9808 C.ar      1 <0>         0.0000
      7 C7         43.9764   -9.6241   28.7548 C.3       1 <0>         0.0000
      8 C8         50.3119  -11.8383   28.9581 C.3       1 <0>         0.0000
      9 C9         45.2808  -10.1701   28.2141 C.3       1 <0>         0.0000
     10 C10        49.0086  -12.4005   28.4319 C.3       1 <0>         0.0000
     11 N1         47.2465   -8.5410   34.9824 N.pl3     1 <0>         0.0000
     12 O1         46.9474   -9.5366   35.6852 O.3       1 <0>         0.0000
     13 O2         47.2098   -7.3714   35.4354 O.2       1 <0>         0.0000
     14 O3         48.2729   -9.7229   27.1281 O.2       1 <0>         0.0000
     15 O4         48.7846   -9.3378   29.6799 O.3       1 <0>         0.0000
     16 O5         46.3562   -9.5978   28.9381 O.3       1 <0>         0.0000
     17 O6         47.9366  -11.6064   28.9105 O.3       1 <0>         0.0000
     18 P1         47.8680  -10.0283   28.5427 P.3       1 <0>         0.0000
     19 H1         47.4262  -10.8949   33.7195 H         1 <0>         0.0000
     20 H2         47.9416   -6.6405   33.2296 H         1 <0>         0.0000
     21 H3         48.1061  -11.2423   31.3767 H         1 <0>         0.0000
     22 H4         48.6203   -6.9967   30.8883 H         1 <0>         0.0000
     23 H5         43.8574   -9.8746   29.8126 H         1 <0>         0.0000
     24 H6         43.9375   -8.5357   28.6426 H         1 <0>         0.0000
     25 H7         43.1268  -10.0322   28.1974 H         1 <0>         0.0000
     26 H8         50.4596  -10.8101   28.6163 H         1 <0>         0.0000
     27 H9         50.3241  -11.8522   30.0530 H         1 <0>         0.0000
     28 H10        51.1581  -12.4471   28.6227 H         1 <0>         0.0000
     29 H11        45.3937   -9.9162   27.1559 H         1 <0>         0.0000
     30 H12        45.3184  -11.2575   28.3277 H         1 <0>         0.0000
     31 H13        48.8669  -13.4289   28.7774 H         1 <0>         0.0000
     32 H14        48.9977  -12.3852   27.3380 H         1 <0>         0.0000
@<TRIPOS>BOND
     1    1    3 ar
     2    1    5 ar
     3    2    4 ar
     4    2    5 ar
     5    3    6 ar
     6    4    6 ar
     7    5   11 1
     8    6   15 1
     9    7    9 1
    10    8   10 1
    11    9   16 1
    12   10   17 1
    13   11   12 1
    14   11   13 2
    15   14   18 2
    16   15   18 1
    17   16   18 1
    18   17   18 1
    19    1   19 1
    20    2   20 1
    21    3   21 1
    22    4   22 1
    23    7   23 1
    24    7   24 1
    25    7   25 1
    26    8   26 1
    27    8   27 1
    28    8   28 1
    29    9   29 1
    30    9   30 1
    31   10   31 1
    32   10   32 1
@<TRIPOS>MOLECULE
*****
   32    32     0     0     0
SMALL
NO_CHARGES

@<TRIPOS>ATOM
      1 C1         45.2959   -9.4570   32.9533 C.ar      1 <0>         0.0000
      2 C2         46.5581   -7.7459   34.1004 C.ar      1 <0>         0.0000
      3 C3         46.3022   -9.5555   31.9925 C.ar      1 <0>         0.0000
      4 C4         47.5645   -7.8443   33.1396 C.ar      1 <0>         0.0000
      5 C5         45.4238   -8.5523   34.0072 C.ar      1 <0>         0.0000
      6 C6         47.4366   -8.7490   32.0857 C.ar      1 <0>         0.0000
      7 C7         44.7997   -8.3153   27.8811 C.3       1 <0>         0.0000
      8 C8         50.1810  -11.5526   29.1456 C.3       1 <0>         0.0000
      9 C9         46.1556   -8.9801   27.9879 C.3       1 <0>         0.0000
     10 C10        49.0065  -11.7156   30.0868 C.3       1 <0>         0.0000
     11 N1         44.3994   -8.4518   34.9854 N.pl3     1 <0>         0.0000
     12 O1         43.3870   -9.1862   34.8833 O.3       1 <0>         0.0000
     13 O2         44.5342   -7.6311   35.9250 O.2       1 <0>         0.0000
     14 O3         49.2962   -8.8534   28.6608 O.2       1 <0>         0.0000
     15 O4         48.4240   -8.8456   31.1430 O.3       1 <0>         0.0000
     16 O5         46.7294   -8.6593   29.2433 O.3       1 <0>         0.0000
     17 O6         47.9566  -10.8608   29.6672 O.3       1 <0>         0.0000
     18 P1         48.1933   -9.2579   29.5980 P.3       1 <0>         0.0000
     19 H1         44.4171  -10.0917   32.8691 H         1 <0>         0.0000
     20 H2         46.6705   -7.0361   34.9163 H         1 <0>         0.0000
     21 H3         46.1971  -10.2623   31.1740 H         1 <0>         0.0000
     22 H4         48.4457   -7.2132   33.2173 H         1 <0>         0.0000
     23 H5         44.1298   -8.6664   28.6709 H         1 <0>         0.0000
     24 H6         44.8962   -7.2273   27.9571 H         1 <0>         0.0000
     25 H7         44.3417   -8.5271   26.9093 H         1 <0>         0.0000
     26 H8         49.9013  -11.8195   28.1227 H         1 <0>         0.0000
     27 H9         50.5426  -10.5191   29.1550 H         1 <0>         0.0000
     28 H10        51.0177  -12.1854   29.4596 H         1 <0>         0.0000
     29 H11        46.8207   -8.6246   27.1953 H         1 <0>         0.0000
     30 H12        46.0573  -10.0671   27.9127 H         1 <0>         0.0000
     31 H13        49.2928  -11.4471   31.1079 H         1 <0>         0.0000
     32 H14        48.6459  -12.7485   30.0754 H         1 <0>         0.0000
@<TRIPOS>BOND
     1    1    3 ar
     2    1    5 ar
     3    2    4 ar
     4    2    5 ar
     5    3    6 ar
     6    4    6 ar
     7    5   11 1
     8    6   15 1
     9    7    9 1
    10    8   10 1
    11    9   16 1
    12   10   17 1
    13   11   12 1
    14   11   13 2
    15   14   18 2
    16   15   18 1
    17   16   18 1
    18   17   18 1
    19    1   19 1
    20    2   20 1
    21    3   21 1
    22    4   22 1
    23    7   23 1
    24    7   24 1
    25    7   25 1
    26    8   26 1
    27    8   27 1
    28    8   28 1
    29    9   29 1
    30    9   30 1
    31   10   31 1
    32   10   32 1
@<TRIPOS>MOLECULE
*****
   32    32     0     0     0
SMALL
NO_CHARGES

@<TRIPOS>ATOM
      1 C1         47.0659   -8.8448   33.5201 C.ar      1 <0>         0.0000
      2 C2         45.2869   -7.3061   32.9683 C.ar      1 <0>         0.0000
      3 C3         47.6767   -8.5782   32.2948 C.ar      1 <0>         0.0000
      4 C4         45.8977   -7.0395   31.7429 C.ar      1 <0>         0.0000
      5 C5         45.8709   -8.2088   33.8568 C.ar      1 <0>         0.0000
      6 C6         47.0926   -7.6755   31.4062 C.ar      1 <0>         0.0000
      7 C7         44.4076   -9.4923   27.8215 C.3       1 <0>         0.0000
      8 C8         50.0639  -10.4937   27.9571 C.3       1 <0>         0.0000
      9 C9         45.6672   -8.6548   27.8815 C.3       1 <0>         0.0000
     10 C10        49.2344  -10.8352   29.1766 C.3       1 <0>         0.0000
     11 N1         45.2489   -8.4802   35.1040 N.pl3     1 <0>         0.0000
     12 O1         45.7905   -9.2955   35.8892 O.3       1 <0>         0.0000
     13 O2         44.1741   -7.8975   35.3871 O.2       1 <0>         0.0000
     14 O3         48.6625   -7.9793   27.8249 O.2       1 <0>         0.0000
     15 O4         47.6919   -7.4138   30.2040 O.3       1 <0>         0.0000
     16 O5         46.5622   -9.2334   28.8155 O.3       1 <0>         0.0000
     17 O6         48.8700   -9.6354   29.8378 O.3       1 <0>         0.0000
     18 P1         47.9939   -8.5139   29.0600 P.3       1 <0>         0.0000
     19 H1         47.5319   -9.5503   34.2038 H         1 <0>         0.0000
     20 H2         44.3555   -6.8037   33.2178 H         1 <0>         0.0000
     21 H3         48.6076   -9.0764   32.0382 H         1 <0>         0.0000
     22 H4         45.4377   -6.3356   31.0547 H         1 <0>         0.0000
     23 H5         44.6328  -10.5136   27.5024 H         1 <0>         0.0000
     24 H6         43.9204   -9.5274   28.8015 H         1 <0>         0.0000
     25 H7         43.6864   -9.0548   27.1231 H         1 <0>         0.0000
     26 H8         49.4960   -9.8704   27.2610 H         1 <0>         0.0000
     27 H9         50.9750   -9.9601   28.2472 H         1 <0>         0.0000
     28 H10        50.3802  -11.4047   27.4383 H         1 <0>         0.0000
     29 H11        45.4350   -7.6346   28.2013 H         1 <0>         0.0000
     30 H12        46.1531   -8.6214   26.9018 H         1 <0>         0.0000
     31 H13        49.8081  -11.4587   29.8687 H         1 <0>         0.0000
     32 H14        48.3241  -11.3674   28.8850 H         1 <0>         0.0000
@<TRIPOS>BOND
     1    1    3 ar
     2    1    5 ar
     3    2    4 ar
     4    2    5 ar
     5    3    6 ar
     6    4    6 ar
     7    5   11 1
     8    6   15 1
     9    7    9 1
    10    8   10 1
    11    9   16 1
    12   10   17 1
    13   11   12 1
    14   11   13 2
    15   14   18 2
    16   15   18 1
    17   16   18 1
    18   17   18 1
    19    1   19 1
    20    2   20 1
    21    3   21 1
    22    4   22 1
    23    7   23 1
    24    7   24 1
    25    7   25 1
    26    8   26 1
    27    8   27 1
    28    8   28 1
    29    9   29 1
    30    9   30 1
    31   10   31 1
    32   10   32 1
@<TRIPOS>MOLECULE
*****
   32    32     0     0     0
SMALL
NO_CHARGES

@<TRIPOS>ATOM
      1 C1         47.0172   -9.4327   33.1999 C.ar      1 <0>         0.0000
      2 C2         47.7780   -7.1556   32.9299 C.ar      1 <0>         0.0000
      3 C3         47.5952   -9.7708   31.9764 C.ar      1 <0>         0.0000
      4 C4         48.3561   -7.4938   31.7063 C.ar      1 <0>         0.0000
      5 C5         47.1085   -8.1249   33.6767 C.ar      1 <0>         0.0000
      6 C6         48.2647   -8.8014   31.2297 C.ar      1 <0>         0.0000
      7 C7         44.3031   -8.6340   28.2135 C.3       1 <0>         0.0000
      8 C8         49.9870  -11.8979   29.6701 C.3       1 <0>         0.0000
      9 C9         45.5636   -9.4279   27.9438 C.3       1 <0>         0.0000
     10 C10        48.7221  -12.2548   28.9190 C.3       1 <0>         0.0000
     11 N1         46.5200   -7.7803   34.9222 N.pl3     1 <0>         0.0000
     12 O1         45.9221   -8.6670   35.5784 O.3       1 <0>         0.0000
     13 O2         46.6134   -6.5981   35.3323 O.2       1 <0>         0.0000
     14 O3         48.7345   -9.5692   27.4364 O.2       1 <0>         0.0000
     15 O4         48.8319   -9.1334   30.0292 O.3       1 <0>         0.0000
     16 O5         46.5740   -9.0103   28.8454 O.3       1 <0>         0.0000
     17 O6         47.7424  -11.2607   29.1661 O.3       1 <0>         0.0000
     18 P1         48.0292   -9.7183   28.7550 P.3       1 <0>         0.0000
     19 H1         46.4985  -10.1979   33.7722 H         1 <0>         0.0000
     20 H2         47.8563   -6.1323   33.2894 H         1 <0>         0.0000
     21 H3         47.5211  -10.7913   31.6103 H         1 <0>         0.0000
     22 H4         48.8760   -6.7341   31.1289 H         1 <0>         0.0000
     23 H5         43.9492   -8.7992   29.2350 H         1 <0>         0.0000
     24 H6         44.4830   -7.5635   28.0704 H         1 <0>         0.0000
     25 H7         43.5102   -8.9198   27.5144 H         1 <0>         0.0000
     26 H8         50.3784  -10.9322   29.3385 H         1 <0>         0.0000
     27 H9         49.7961  -11.8512   30.7473 H         1 <0>         0.0000
     28 H10        50.7558  -12.6624   29.5161 H         1 <0>         0.0000
     29 H11        45.9122   -9.2583   26.9207 H         1 <0>         0.0000
     30 H12        45.3823  -10.4971   28.0880 H         1 <0>         0.0000
     31 H13        48.3358  -13.2216   29.2552 H         1 <0>         0.0000
     32 H14        48.9144  -12.3004   27.8429 H         1 <0>         0.0000
@<TRIPOS>BOND
     1    1    3 ar
     2    1    5 ar
     3    2    4 ar
     4    2    5 ar
     5    3    6 ar
     6    4    6 ar
     7    5   11 1
     8    6   15 1
     9    7    9 1
    10    8   10 1
    11    9   16 1
    12   10   17 1
    13   11   12 1
    14   11   13 2
    15   14   18 2
    16   15   18 1
    17   16   18 1
    18   17   18 1
    19    1   19 1
    20    2   20 1
    21    3   21 1
    22    4   22 1
    23    7   23 1
    24    7   24 1
    25    7   25 1
    26    8   26 1
    27    8   27 1
    28    8   28 1
    29    9   29 1
    30    9   30 1
    31   10   31 1
    32   10   32 1
@<TRIPOS>MOLECULE
*****
   32    32     0     0     0
SMALL
NO_CHARGES

@<TRIPOS>ATOM
      1 C1         47.2116   -9.4833   32.7672 C.ar      1 <0>         0.0000
      2 C2         48.1373   -7.2583   32.9390 C.ar      1 <0>         0.0000
      3 C3         47.4829   -9.4905   31.3989 C.ar      1 <0>         0.0000
      4 C4         48.4086   -7.2655   31.5708 C.ar      1 <0>         0.0000
      5 C5         47.5388   -8.3671   33.5372 C.ar      1 <0>         0.0000
      6 C6         48.0814   -8.3816   30.8008 C.ar      1 <0>         0.0000
      7 C7         45.6575   -7.7124   28.2624 C.3       1 <0>         0.0000
      8 C8         49.4414  -13.1490   29.4158 C.3       1 <0>         0.0000
      9 C9         45.4915   -9.1868   27.9621 C.3       1 <0>         0.0000
     10 C10        48.6297  -12.1718   28.5926 C.3       1 <0>         0.0000
     11 N1         47.2625   -8.3594   34.9300 N.pl3     1 <0>         0.0000
     12 O1         46.7236   -9.3669   35.4487 O.3       1 <0>         0.0000
     13 O2         47.5646   -7.3450   35.6042 O.2       1 <0>         0.0000
     14 O3         48.4088   -9.3799   27.0221 O.2       1 <0>         0.0000
     15 O4         48.3476   -8.3888   29.4584 O.3       1 <0>         0.0000
     16 O5         46.4494   -9.9200   28.7057 O.3       1 <0>         0.0000
     17 O6         48.7820  -10.8718   29.1368 O.3       1 <0>         0.0000
     18 P1         48.0209   -9.6122   28.4552 P.3       1 <0>         0.0000
     19 H1         46.7451  -10.3542   33.2210 H         1 <0>         0.0000
     20 H2         48.3971   -6.3815   33.5272 H         1 <0>         0.0000
     21 H3         47.2260  -10.3630   30.8044 H         1 <0>         0.0000
     22 H4         48.8747   -6.3985   31.1105 H         1 <0>         0.0000
     23 H5         45.5023   -7.5109   29.3260 H         1 <0>         0.0000
     24 H6         46.6591   -7.3714   27.9805 H         1 <0>         0.0000
     25 H7         44.9440   -7.1177   27.6824 H         1 <0>         0.0000
     26 H8         50.5027  -12.8859   29.3994 H         1 <0>         0.0000
     27 H9         49.0957  -13.1590   30.4547 H         1 <0>         0.0000
     28 H10        49.3240  -14.1678   29.0317 H         1 <0>         0.0000
     29 H11        45.6481   -9.3814   26.8968 H         1 <0>         0.0000
     30 H12        44.4906   -9.5260   28.2451 H         1 <0>         0.0000
     31 H13        47.5694  -12.4405   28.6133 H         1 <0>         0.0000
     32 H14        48.9769  -12.1623   27.5552 H         1 <0>         0.0000
@<TRIPOS>BOND
     1    1    3 ar
     2    1    5 ar
     3    2    4 ar
     4    2    5 ar
     5    3    6 ar
     6    4    6 ar
     7    5   11 1
     8    6   15 1
     9    7    9 1
    10    8   10 1
    11    9   16 1
    12   10   17 1
    13   11   12 1
    14   11   13 2
    15   14   18 2
    16   15   18 1
    17   16   18 1
    18   17   18 1
    19    1   19 1
    20    2   20 1
    21    3   21 1
    22    4   22 1
    23    7   23 1
    24    7   24 1
    25    7   25 1
    26    8   26 1
    27    8   27 1
    28    8   28 1
    29    9   29 1
    30    9   30 1
    31   10   31 1
    32   10   32 1
@<TRIPOS>MOLECULE
*****
   32    32     0     0     0
SMALL
NO_CHARGES

@<TRIPOS>ATOM
      1 C1         45.9045   -9.0073   32.9506 C.ar      1 <0>         0.0000
      2 C2         45.6116   -6.6172   33.1471 C.ar      1 <0>         0.0000
      3 C3         46.7589   -8.8135   31.8652 C.ar      1 <0>         0.0000
      4 C4         46.4660   -6.4233   32.0617 C.ar      1 <0>         0.0000
      5 C5         45.3308   -7.9092   33.5914 C.ar      1 <0>         0.0000
      6 C6         47.0397   -7.5214   31.4208 C.ar      1 <0>         0.0000
      7 C7         44.3773   -9.2079   28.1187 C.3       1 <0>         0.0000
      8 C8         50.1231  -11.6389   29.8443 C.3       1 <0>         0.0000
      9 C9         45.6553   -8.3967   28.1294 C.3       1 <0>         0.0000
     10 C10        49.2641  -10.7100   29.0132 C.3       1 <0>         0.0000
     11 N1         44.4609   -8.1063   34.6963 N.pl3     1 <0>         0.0000
     12 O1         44.2211   -9.2766   35.0804 O.3       1 <0>         0.0000
     13 O2         43.9550   -7.1048   35.2582 O.2       1 <0>         0.0000
     14 O3         48.6511   -7.7690   27.8796 O.2       1 <0>         0.0000
     15 O4         47.8781   -7.3313   30.3559 O.3       1 <0>         0.0000
     16 O5         46.6067   -9.0451   28.9555 O.3       1 <0>         0.0000
     17 O6         48.9771   -9.5462   29.7698 O.3       1 <0>         0.0000
     18 P1         48.0680   -8.3656   29.1295 P.3       1 <0>         0.0000
     19 H1         45.6943  -10.0196   33.2871 H         1 <0>         0.0000
     20 H2         45.1709   -5.7524   33.6370 H         1 <0>         0.0000
     21 H3         47.2030   -9.6728   31.3702 H         1 <0>         0.0000
     22 H4         46.6807   -5.4144   31.7199 H         1 <0>         0.0000
     23 H5         44.5556  -10.2118   27.7237 H         1 <0>         0.0000
     24 H6         43.9661   -9.2936   29.1299 H         1 <0>         0.0000
     25 H7         43.6141   -8.7174   27.5054 H         1 <0>         0.0000
     26 H8         51.0668  -11.1584   30.1168 H         1 <0>         0.0000
     27 H9         49.5992  -11.9337   30.7594 H         1 <0>         0.0000
     28 H10        50.3417  -12.5592   29.2925 H         1 <0>         0.0000
     29 H11        45.4701   -7.3937   28.5254 H         1 <0>         0.0000
     30 H12        46.0653   -8.3127   27.1185 H         1 <0>         0.0000
     31 H13        48.3219  -11.1967   28.7440 H         1 <0>         0.0000
     32 H14        49.7893  -10.4158   28.0996 H         1 <0>         0.0000
@<TRIPOS>BOND
     1    1    3 ar
     2    1    5 ar
     3    2    4 ar
     4    2    5 ar
     5    3    6 ar
     6    4    6 ar
     7    5   11 1
     8    6   15 1
     9    7    9 1
    10    8   10 1
    11    9   16 1
    12   10   17 1
    13   11   12 1
    14   11   13 2
    15   14   18 2
    16   15   18 1
    17   16   18 1
    18   17   18 1
    19    1   19 1
    20    2   20 1
    21    3   21 1
    22    4   22 1
    23    7   23 1
    24    7   24 1
    25    7   25 1
    26    8   26 1
    27    8   27 1
    28    8   28 1
    29    9   29 1
    30    9   30 1
    31   10   31 1
    32   10   32 1
@<TRIPOS>MOLECULE
*****
   32    32     0     0     0
SMALL
NO_CHARGES

@<TRIPOS>ATOM
      1 C1         47.0741   -9.2446   33.6089 C.ar      1 <0>         0.0000
      2 C2         47.1635   -6.8335   33.4856 C.ar      1 <0>         0.0000
      3 C3         47.8048   -9.3325   32.4239 C.ar      1 <0>         0.0000
      4 C4         47.8942   -6.9212   32.3006 C.ar      1 <0>         0.0000
      5 C5         46.7535   -7.9952   34.1396 C.ar      1 <0>         0.0000
      6 C6         48.2148   -8.1706   31.7699 C.ar      1 <0>         0.0000
      7 C7         44.9400   -9.8061   29.0427 C.3       1 <0>         0.0000
      8 C8         48.7518  -12.4589   28.9002 C.3       1 <0>         0.0000
      9 C9         46.3147   -9.2197   28.8025 C.3       1 <0>         0.0000
     10 C10        49.9926  -11.8102   29.4760 C.3       1 <0>         0.0000
     11 N1         46.0096   -7.9055   35.3458 N.pl3     1 <0>         0.0000
     12 O1         45.6502   -8.9626   35.9186 O.3       1 <0>         0.0000
     13 O2         45.7314   -6.7717   35.8058 O.2       1 <0>         0.0000
     14 O3         49.3150   -9.1262   28.1539 O.2       1 <0>         0.0000
     15 O4         48.9318   -8.2568   30.6073 O.3       1 <0>         0.0000
     16 O5         47.2563   -9.9042   29.6105 O.3       1 <0>         0.0000
     17 O6         49.6102  -10.6777   30.2379 O.3       1 <0>         0.0000
     18 P1         48.8118   -9.4557   29.5310 P.3       1 <0>         0.0000
     19 H1         46.7610  -10.1579   34.1088 H         1 <0>         0.0000
     20 H2         46.9201   -5.8531   33.8879 H         1 <0>         0.0000
     21 H3         48.0518  -10.3086   32.0155 H         1 <0>         0.0000
     22 H4         48.2105   -6.0126   31.7954 H         1 <0>         0.0000
     23 H5         44.9174  -10.8677   28.7814 H         1 <0>         0.0000
     24 H6         44.6508   -9.6943   30.0928 H         1 <0>         0.0000
     25 H7         44.1866   -9.2797   28.4474 H         1 <0>         0.0000
     26 H8         48.0771  -12.7857   29.6964 H         1 <0>         0.0000
     27 H9         48.2175  -11.7597   28.2487 H         1 <0>         0.0000
     28 H10        49.0191  -13.3252   28.2860 H         1 <0>         0.0000
     29 H11        46.3304   -8.1578   29.0658 H         1 <0>         0.0000
     30 H12        46.6025   -9.3329   27.7530 H         1 <0>         0.0000
     31 H13        50.6630  -11.4857   28.6745 H         1 <0>         0.0000
     32 H14        50.5247  -12.5099   30.1272 H         1 <0>         0.0000
@<TRIPOS>BOND
     1    1    3 ar
     2    1    5 ar
     3    2    4 ar
     4    2    5 ar
     5    3    6 ar
     6    4    6 ar
     7    5   11 1
     8    6   15 1
     9    7    9 1
    10    8   10 1
    11    9   16 1
    12   10   17 1
    13   11   12 1
    14   11   13 2
    15   14   18 2
    16   15   18 1
    17   16   18 1
    18   17   18 1
    19    1   19 1
    20    2   20 1
    21    3   21 1
    22    4   22 1
    23    7   23 1
    24    7   24 1
    25    7   25 1
    26    8   26 1
    27    8   27 1
    28    8   28 1
    29    9   29 1
    30    9   30 1
    31   10   31 1
    32   10   32 1
@<TRIPOS>MOLECULE
*****
   32    32     0     0     0
SMALL
NO_CHARGES

@<TRIPOS>ATOM
      1 C1         46.2747   -8.8600   33.5635 C.ar      1 <0>         0.0000
      2 C2         46.2177   -6.4649   33.2516 C.ar      1 <0>         0.0000
      3 C3         47.1435   -8.9807   32.4789 C.ar      1 <0>         0.0000
      4 C4         47.0865   -6.5855   32.1670 C.ar      1 <0>         0.0000
      5 C5         45.8118   -7.6021   33.9498 C.ar      1 <0>         0.0000
      6 C6         47.5493   -7.8434   31.7807 C.ar      1 <0>         0.0000
      7 C7         44.7327   -9.9204   28.8500 C.3       1 <0>         0.0000
      8 C8         48.7026  -12.2813   29.3543 C.3       1 <0>         0.0000
      9 C9         46.0841   -9.2515   28.7170 C.3       1 <0>         0.0000
     10 C10        49.8214  -11.4996   30.0092 C.3       1 <0>         0.0000
     11 N1         44.9273   -7.4790   35.0538 N.pl3     1 <0>         0.0000
     12 O1         44.5741   -8.5144   35.6685 O.3       1 <0>         0.0000
     13 O2         44.5224   -6.3381   35.3843 O.2       1 <0>         0.0000
     14 O3         49.1269   -8.9807   28.4019 O.2       1 <0>         0.0000
     15 O4         48.4018   -7.9618   30.7166 O.3       1 <0>         0.0000
     16 O5         46.9678   -9.8008   29.6790 O.3       1 <0>         0.0000
     17 O6         49.2780  -10.3455   30.6272 O.3       1 <0>         0.0000
     18 P1         48.4887   -9.2434   29.7368 P.3       1 <0>         0.0000
     19 H1         45.9664   -9.7544   34.0994 H         1 <0>         0.0000
     20 H2         45.8642   -5.4784   33.5415 H         1 <0>         0.0000
     21 H3         47.5009   -9.9631   32.1829 H         1 <0>         0.0000
     22 H4         47.3988   -5.6960   31.6267 H         1 <0>         0.0000
     23 H5         44.8115  -10.9972   28.6767 H         1 <0>         0.0000
     24 H6         44.3156   -9.7526   29.8484 H         1 <0>         0.0000
     25 H7         44.0210   -9.4983   28.1327 H         1 <0>         0.0000
     26 H8         47.9623  -12.5977   30.0945 H         1 <0>         0.0000
     27 H9         48.2031  -11.6750   28.5915 H         1 <0>         0.0000
     28 H10        49.0969  -13.1684   28.8477 H         1 <0>         0.0000
     29 H11        45.9983   -8.1748   28.8914 H         1 <0>         0.0000
     30 H12        46.4998   -9.4208   27.7192 H         1 <0>         0.0000
     31 H13        50.5582  -11.1862   29.2635 H         1 <0>         0.0000
     32 H14        50.3187  -12.1065   30.7715 H         1 <0>         0.0000
@<TRIPOS>BOND
     1    1    3 ar
     2    1    5 ar
     3    2    4 ar
     4    2    5 ar
     5    3    6 ar
     6    4    6 ar
     7    5   11 1
     8    6   15 1
     9    7    9 1
    10    8   10 1
    11    9   16 1
    12   10   17 1
    13   11   12 1
    14   11   13 2
    15   14   18 2
    16   15   18 1
    17   16   18 1
    18   17   18 1
    19    1   19 1
    20    2   20 1
    21    3   21 1
    22    4   22 1
    23    7   23 1
    24    7   24 1
    25    7   25 1
    26    8   26 1
    27    8   27 1
    28    8   28 1
    29    9   29 1
    30    9   30 1
    31   10   31 1
    32   10   32 1
@<TRIPOS>MOLECULE
*****
   32    32     0     0     0
SMALL
NO_CHARGES

@<TRIPOS>ATOM
      1 C1         46.8149   -9.5963   32.8283 C.ar      1 <0>         0.0000
      2 C2         47.2185   -7.2149   32.7741 C.ar      1 <0>         0.0000
      3 C3         47.0324   -9.6645   31.4521 C.ar      1 <0>         0.0000
      4 C4         47.4360   -7.2831   31.3979 C.ar      1 <0>         0.0000
      5 C5         46.9079   -8.3714   33.4892 C.ar      1 <0>         0.0000
      6 C6         47.3430   -8.5079   30.7370 C.ar      1 <0>         0.0000
      7 C7         44.7428   -8.6230   28.2892 C.3       1 <0>         0.0000
      8 C8         49.6970  -12.9570   29.6596 C.3       1 <0>         0.0000
      9 C9         44.9042  -10.1182   28.1152 C.3       1 <0>         0.0000
     10 C10        48.6567  -12.2619   28.8073 C.3       1 <0>         0.0000
     11 N1         46.6863   -8.3016   34.8901 N.pl3     1 <0>         0.0000
     12 O1         46.4079   -9.3537   35.5148 O.3       1 <0>         0.0000
     13 O2         46.7745   -7.1897   35.4649 O.2       1 <0>         0.0000
     14 O3         47.7545   -9.7401   27.0363 O.2       1 <0>         0.0000
     15 O4         47.5565   -8.5749   29.3869 O.3       1 <0>         0.0000
     16 O5         46.0287  -10.5509   28.8611 O.3       1 <0>         0.0000
     17 O6         48.5299  -10.9176   29.2385 O.3       1 <0>         0.0000
     18 P1         47.4801   -9.9246   28.5023 P.3       1 <0>         0.0000
     19 H1         46.5739  -10.5054   33.3738 H         1 <0>         0.0000
     20 H2         47.2937   -6.2536   33.2765 H         1 <0>         0.0000
     21 H3         46.9589  -10.6216   30.9429 H         1 <0>         0.0000
     22 H4         47.6773   -6.3786   30.8462 H         1 <0>         0.0000
     23 H5         44.5835   -8.3675   29.3405 H         1 <0>         0.0000
     24 H6         45.6306   -8.0942   27.9273 H         1 <0>         0.0000
     25 H7         43.8932   -8.2560   27.7038 H         1 <0>         0.0000
     26 H8         50.6700  -12.4669   29.5649 H         1 <0>         0.0000
     27 H9         49.3993  -12.9513   30.7132 H         1 <0>         0.0000
     28 H10        49.7997  -14.0063   29.3637 H         1 <0>         0.0000
     29 H11        45.0632  -10.3670   27.0617 H         1 <0>         0.0000
     30 H12        44.0166  -10.6450   28.4779 H         1 <0>         0.0000
     31 H13        47.6861  -12.7570   28.9066 H         1 <0>         0.0000
     32 H14        48.9560  -12.2678   27.7550 H         1 <0>         0.0000
@<TRIPOS>BOND
     1    1    3 ar
     2    1    5 ar
     3    2    4 ar
     4    2    5 ar
     5    3    6 ar
     6    4    6 ar
     7    5   11 1
     8    6   15 1
     9    7    9 1
    10    8   10 1
    11    9   16 1
    12   10   17 1
    13   11   12 1
    14   11   13 2
    15   14   18 2
    16   15   18 1
    17   16   18 1
    18   17   18 1
    19    1   19 1
    20    2   20 1
    21    3   21 1
    22    4   22 1
    23    7   23 1
    24    7   24 1
    25    7   25 1
    26    8   26 1
    27    8   27 1
    28    8   28 1
    29    9   29 1
    30    9   30 1
    31   10   31 1
    32   10   32 1
@<TRIPOS>MOLECULE
*****
   32    32     0     0     0
SMALL
NO_CHARGES

@<TRIPOS>ATOM
      1 C1         46.9189   -9.1087   33.7169 C.ar      1 <0>         0.0000
      2 C2         45.8083   -6.9822   34.0027 C.ar      1 <0>         0.0000
      3 C3         47.1365   -8.8141   32.3709 C.ar      1 <0>         0.0000
      4 C4         46.0259   -6.6877   32.6567 C.ar      1 <0>         0.0000
      5 C5         46.2547   -8.1927   34.5327 C.ar      1 <0>         0.0000
      6 C6         46.6901   -7.6036   31.8409 C.ar      1 <0>         0.0000
      7 C7         44.6877   -8.8486   29.1564 C.3       1 <0>         0.0000
      8 C8         49.7309  -10.4716   28.8941 C.3       1 <0>         0.0000
      9 C9         45.7168   -9.9043   28.8120 C.3       1 <0>         0.0000
     10 C10        50.1553   -9.1173   29.4209 C.3       1 <0>         0.0000
     11 N1         46.0328   -8.4923   35.9029 N.pl3     1 <0>         0.0000
     12 O1         46.4422   -9.5869   36.3600 O.3       1 <0>         0.0000
     13 O2         45.4329   -7.6546   36.6191 O.2       1 <0>         0.0000
     14 O3         47.7679   -7.7416   28.0724 O.2       1 <0>         0.0000
     15 O4         46.9038   -7.3146   30.5204 O.3       1 <0>         0.0000
     16 O5         46.8737   -9.6965   29.6035 O.3       1 <0>         0.0000
     17 O6         49.0912   -8.5606   30.1737 O.3       1 <0>         0.0000
     18 P1         47.6567   -8.2836   29.4696 P.3       1 <0>         0.0000
     19 H1         47.2723  -10.0557   34.1175 H         1 <0>         0.0000
     20 H2         45.2888   -6.2594   34.6271 H         1 <0>         0.0000
     21 H3         47.6548   -9.5315   31.7404 H         1 <0>         0.0000
     22 H4         45.6755   -5.7431   32.2495 H         1 <0>         0.0000
     23 H5         44.4046   -8.9091   30.2109 H         1 <0>         0.0000
     24 H6         45.0793   -7.8467   28.9523 H         1 <0>         0.0000
     25 H7         43.7895   -8.9704   28.5418 H         1 <0>         0.0000
     26 H8         49.4913  -11.1524   29.7157 H         1 <0>         0.0000
     27 H9         48.8531  -10.3762   28.2466 H         1 <0>         0.0000
     28 H10        50.5268  -10.9164   28.2876 H         1 <0>         0.0000
     29 H11        45.9956   -9.8383   27.7561 H         1 <0>         0.0000
     30 H12        45.3241  -10.9046   29.0172 H         1 <0>         0.0000
     31 H13        50.3934   -8.4414   28.5941 H         1 <0>         0.0000
     32 H14        51.0319   -9.2146   30.0682 H         1 <0>         0.0000
@<TRIPOS>BOND
     1    1    3 ar
     2    1    5 ar
     3    2    4 ar
     4    2    5 ar
     5    3    6 ar
     6    4    6 ar
     7    5   11 1
     8    6   15 1
     9    7    9 1
    10    8   10 1
    11    9   16 1
    12   10   17 1
    13   11   12 1
    14   11   13 2
    15   14   18 2
    16   15   18 1
    17   16   18 1
    18   17   18 1
    19    1   19 1
    20    2   20 1
    21    3   21 1
    22    4   22 1
    23    7   23 1
    24    7   24 1
    25    7   25 1
    26    8   26 1
    27    8   27 1
    28    8   28 1
    29    9   29 1
    30    9   30 1
    31   10   31 1
    32   10   32 1
